<?xml version="1.0" encoding="UTF-8" standalone="yes" ?>
<document OS="nt64" product="ISE" version="14.7">

  <!--The data in this file is primarily intended for consumption by Xilinx tools.
    The structure and the elements are likely to change over the next few releases.
    This means code written to parse this file will need to be revisited each subsequent release.-->

  <application stringID="Map" timeStamp="Mon Dec 03 16:49:03 2018">
    <section stringID="User_Env">
      <table stringID="User_EnvVar">
        <column stringID="variable"/>
        <column stringID="value"/>
        <row stringID="row" value="0">
          <item stringID="variable" value="PATH"/>
          <item stringID="value" value="C:\Xilinx\14.7\ISE_DS\ISE\\lib\nt64;C:\Xilinx\14.7\ISE_DS\EDK\lib\nt64;C:\Xilinx\14.7\ISE_DS\ISE\\bin\nt64;C:\Xilinx\14.7\ISE_DS\EDK\bin\nt64;C:\Xilinx\14.7\ISE_DS\EDK\gnu\microblaze\nt64\bin;C:\Xilinx\14.7\ISE_DS\EDK\gnu\powerpc-eabi\nt64\bin;C:\Xilinx\14.7\ISE_DS\EDK\gnuwin\bin;C:\Xilinx\14.7\ISE_DS\ISE\bin\nt64;C:\Xilinx\14.7\ISE_DS\ISE\lib\nt64;C:\Xilinx\14.7\ISE_DS\ISE\..\..\..\DocNav;C:\Xilinx\14.7\ISE_DS\PlanAhead\bin;C:\Xilinx\14.7\ISE_DS\EDK\gnu\microblaze\nt\bin;C:\Xilinx\14.7\ISE_DS\EDK\gnu\powerpc-eabi\nt\bin;C:\Xilinx\14.7\ISE_DS\EDK\gnu\arm\nt\bin;C:\Xilinx\14.7\ISE_DS\EDK\gnu\microblaze\linux_toolchain\nt64_be\bin;C:\Xilinx\14.7\ISE_DS\EDK\gnu\microblaze\linux_toolchain\nt64_le\bin;C:\Xilinx\14.7\ISE_DS\common\bin\nt64;C:\Xilinx\14.7\ISE_DS\common\lib\nt64;I:\AMESim\v1200;C:\windows\system32;C:\windows;C:\windows\System32\Wbem;C:\windows\System32\WindowsPowerShell\v1.0\;C:\Program Files (x86)\IVI Foundation\VISA\WinNT\Bin;C:\Program Files\Agilent\IO Libraries Suite\bin;C:\Program Files\IVI Foundation\VISA\Win64\agvisa;C:\Program Files\IVI Foundation\VISA\Win64\bin;C:\Program Files (x86)\Agilent\IO Libraries Suite\bin;C:\Program Files (x86)\IVI Foundation\VISA\WinNT\agvisa;C:\Program Files (x86)\IVI Foundation\IVI\bin;C:\Program Files\IVI Foundation\IVI\bin;C:\Program Files (x86)\IVI Foundation\VISA\WinNT\Bin\;C:\Program Files\IVI Foundation\VISA\Win64\Bin\;C:\Anaconda;C:\Anaconda\Scripts;C:\TELEMAC\V7P2R0\scripts\python27;C:\TELEMAC\MPICH2\bin;C:\Program Files\mingw-w64\mingw64\bin;C:\TELEMAC\V7P2R0\configs\systel.cfg;C:\Program Files\Microsoft\Web Platform Installer\;C:\Program Files (x86)\Microsoft ASP.NET\ASP.NET Web Pages\v1.0\;C:\Program Files (x86)\Windows Kits\8.0\Windows Performance Toolkit\;C:\Program Files\Microsoft SQL Server\110\Tools\Binn\;C:\Program Files\MATLAB\Matlab2018A\runtime\win64;C:\Program Files\MATLAB\Matlab2018A\bin;C:\Program Files (x86)\Java\jre1.8.0_101\bin;C:\Program Files\PuTTY\;C:\Program Files (x86)\MATLAB\MATLAB Component Runtime\v77\runtime\win32;C:\TELEMAC\Pre_Post\Bin;C:\Program Files (x86)\Microsoft Visual Studio\Common\Tools;C:\Program Files (x86)\Microsoft Visual Studio\Common\Msdev98\BIN;C:\Program Files (x86)\Microsoft Visual Studio\DF98\BIN;C:\Program Files (x86)\Microsoft Visual Studio\VC98\BIN;I:\AMESim\v1200\win32;I:\AMESim\v1200\sys\mingw32\bin;I:\AMESim\v1200\sys\mpich\mpd\bin;I:\AMESim\v1200\sys\cgns;I:\AMESim\v1200\sys\python\win32;C:\Program Files (x86)\Microchip\MPLAB IDE\VDI"/>
        </row>
        <row stringID="row" value="1">
          <item stringID="variable" value="PATHEXT"/>
          <item stringID="value" value=".COM;.EXE;.BAT;.CMD;.VBS;.VBE;.JS;.JSE;.WSF;.WSH;.MSC;.PY"/>
        </row>
        <row stringID="row" value="2">
          <item stringID="variable" value="XILINX"/>
          <item stringID="value" value="C:\Xilinx\14.7\ISE_DS\ISE\;C:\Xilinx\14.7\ISE_DS\EDK"/>
        </row>
        <row stringID="row" value="3">
          <item stringID="variable" value="XILINXD_LICENSE_FILE"/>
          <item stringID="value" value="2100@flexwin.enseeiht.fr"/>
        </row>
        <row stringID="row" value="4">
          <item stringID="variable" value="XILINX_DSP"/>
          <item stringID="value" value="C:\Xilinx\14.7\ISE_DS\ISE"/>
        </row>
        <row stringID="row" value="5">
          <item stringID="variable" value="XILINX_EDK"/>
          <item stringID="value" value="C:\Xilinx\14.7\ISE_DS\EDK"/>
        </row>
        <row stringID="row" value="6">
          <item stringID="variable" value="XILINX_PLANAHEAD"/>
          <item stringID="value" value="C:\Xilinx\14.7\ISE_DS\PlanAhead"/>
        </row>
      </table>
      <item stringID="User_EnvOs" value="OS Information">
        <item stringID="User_EnvOsname" value="Microsoft Windows 7 , 64-bit"/>
        <item stringID="User_EnvOsrelease" value="Service Pack 1  (build 7601)"/>
      </item>
      <item stringID="User_EnvHost" value="N7-B103-05"/>
      <table stringID="User_EnvCpu">
        <column stringID="arch"/>
        <column stringID="speed"/>
        <row stringID="row" value="0">
          <item stringID="arch" value="Intel(R) Core(TM) i5-6500 CPU @ 3.20GHz"/>
          <item stringID="speed" value="3192 MHz"/>
        </row>
      </table>
    </section>
    <section stringID="MAP_OPTION_SUMMARY">
      <item DEFAULT="TRUE" label="-detail" stringID="MAP_DETAILED_REPORT" value="TRUE"/>
      <item DEFAULT="high" label="-ol" stringID="MAP_EFFORTLEVEL" value="high"/>
      <item DEFAULT="FALSE" stringID="MAP_REPLICATELUTS" value="TRUE"/>
      <item DEFAULT="None" label="-o" stringID="MAP_OUTFILE" value="system_map.ncd"/>
      <item DEFAULT="off" label="-pr" stringID="MAP_PACK_INTERNAL" value="b"/>
    </section>
    <task stringID="MAP_PACK_REPORT">
      <section stringID="MAP_DESIGN_INFORMATION">
        <item stringID="MAP_PART" value="3s500efg320-5"/>
        <item stringID="MAP_DEVICE" value="xc3s500e"/>
        <item stringID="MAP_ARCHITECTURE" value="spartan3e"/>
        <item stringID="MAP_PACKAGE" value="fg320"/>
        <item stringID="MAP_SPEED" value="-5"/>
      </section>
      <section stringID="MAP_DESIGN_SUMMARY">
        <item dataType="int" stringID="MAP_NUM_ERRORS" value="0"/>
        <item dataType="int" stringID="MAP_FILTERED_WARNINGS" value="0"/>
        <item dataType="int" stringID="MAP_NUM_WARNINGS" value="3"/>
        <item UNITS="KB" dataType="int" stringID="MAP_PEAK_MEMORY" value="446608"/>
        <item stringID="MAP_TOTAL_REAL_TIME" value="57 secs "/>
        <item stringID="MAP_TOTAL_CPU_TIME" value="38 secs "/>
      </section>
      <section stringID="MAP_SLICE_REPORTING">
        <item AVAILABLE="9312" dataType="int" label="Number of Slice Flip Flops" stringID="MAP_NUM_SLICE_FF" value="1619"/>
        <item AVAILABLE="9312" dataType="int" label="Number of 4 input LUTs" stringID="MAP_NUM_4_INPUT_LUT" value="2873">
          <item dataType="int" label="Number of route-thrus" stringID="MAP_NUM_LUT_RT" value="41"/>
          <item dataType="int" stringID="MAP_NUM_DP_RAM" value="384"/>
          <item dataType="int" label="Number used as Shift registers" stringID="MAP_NUM_SHIFT" value="147"/>
        </item>
        <item AVAILABLE="4656" dataType="int" label="Number of occupied Slices" stringID="MAP_OCCUPIED_SLICES" value="1819">
          <item dataType="int" label="Number of Slices containing unrelated logic" stringID="MAP_NUM_SLICE_UNRELATED" value="0"/>
        </item>
      </section>
      <section stringID="MAP_IOB_REPORTING">
        <section stringID="MAP_IOB_DATA">
          <item AVAILABLE="232" dataType="int" stringID="MAP_AGG_BONDED_IO" value="26"/>
          <item dataType="int" label="IOB Flip Flops" stringID="MAP_NUM_IOB_FF" value="16"/>
        </section>
      </section>
      <section stringID="MAP_HARD_IP_REPORTING">
        <item AVAILABLE="20" dataType="int" stringID="MAP_NUM_RAMB16" value="8"/>
        <item AVAILABLE="24" dataType="int" label="Number of BUFGMUXs" stringID="MAP_NUM_BUFGMUX" value="1"/>
        <item AVAILABLE="4" dataType="int" stringID="MAP_NUM_DCM" value="1"/>
        <item AVAILABLE="20" dataType="int" stringID="MAP_NUM_MULT18X18SIO" value="3"/>
      </section>
      <section stringID="MAP_MACRO_RPM_REPORTING">
        <item dataType="int" stringID="MAP_HARD_MACROS" value="0"/>
        <item dataType="int" stringID="MAP_RPMS" value="0"/>
      </section>
      <section stringID="MAP_IOB_PROPERTIES">
        <table stringID="MAP_IOB_TABLE">
          <column label="IOB&#xA;Name" sort="smart" stringID="IOB_NAME"/>
          <column stringID="Type"/>
          <column stringID="Direction"/>
          <column label="IO&#xA;Standard" sort="smart" stringID="IO_STANDARD"/>
          <column label="Diff&#xA;Term" stringID="DIFF_TERM"/>
          <column label="Drive&#xA;Strength" stringID="DRIVE_STRENGTH"/>
          <column label="Slew&#xA;Rate" stringID="SLEW_RATE"/>
          <column label="Reg&#xA;(s)" stringID="REGS"/>
          <column stringID="Resistor"/>
          <column label="IOB&#xA;Delay" stringID="IOB_DELAY"/>
          <row stringID="row" value="1">
            <item label="IOB&#xA;Name" sort="smart" stringID="IOB_NAME" value="clock_generator_0_CLKIN_pin"/>
            <item stringID="Type" value="IBUF"/>
            <item stringID="Direction" value="INPUT"/>
            <item label="IO&#xA;Standard" sort="smart" stringID="IO_STANDARD" value="LVCMOS25"/>
            <item label="IOB&#xA;Delay" stringID="IOB_DELAY" value="0 / 0"/>
          </row>
          <row stringID="row" value="2">
            <item label="IOB&#xA;Name" sort="smart" stringID="IOB_NAME" value="clock_generator_0_RST_pin"/>
            <item stringID="Type" value="IBUF"/>
            <item stringID="Direction" value="INPUT"/>
            <item label="IO&#xA;Standard" sort="smart" stringID="IO_STANDARD" value="LVCMOS25"/>
            <item label="IOB&#xA;Delay" stringID="IOB_DELAY" value="0 / 0"/>
          </row>
          <row stringID="row" value="3">
            <item label="IOB&#xA;Name" sort="smart" stringID="IOB_NAME" value="xps_gpio_0_GPIO_IO_O_pin&lt;0>"/>
            <item stringID="Type" value="IOB"/>
            <item stringID="Direction" value="OUTPUT"/>
            <item label="IO&#xA;Standard" sort="smart" stringID="IO_STANDARD" value="LVCMOS25"/>
            <item label="Drive&#xA;Strength" stringID="DRIVE_STRENGTH" value="12"/>
            <item label="Slew&#xA;Rate" stringID="SLEW_RATE" value="SLOW"/>
            <item label="Reg&#xA;(s)" stringID="REGS" value="OFF1"/>
            <item label="IOB&#xA;Delay" stringID="IOB_DELAY" value="0 / 0"/>
          </row>
          <row stringID="row" value="4">
            <item label="IOB&#xA;Name" sort="smart" stringID="IOB_NAME" value="xps_gpio_0_GPIO_IO_O_pin&lt;1>"/>
            <item stringID="Type" value="IOB"/>
            <item stringID="Direction" value="OUTPUT"/>
            <item label="IO&#xA;Standard" sort="smart" stringID="IO_STANDARD" value="LVCMOS25"/>
            <item label="Drive&#xA;Strength" stringID="DRIVE_STRENGTH" value="12"/>
            <item label="Slew&#xA;Rate" stringID="SLEW_RATE" value="SLOW"/>
            <item label="Reg&#xA;(s)" stringID="REGS" value="OFF1"/>
            <item label="IOB&#xA;Delay" stringID="IOB_DELAY" value="0 / 0"/>
          </row>
          <row stringID="row" value="5">
            <item label="IOB&#xA;Name" sort="smart" stringID="IOB_NAME" value="xps_gpio_0_GPIO_IO_O_pin&lt;2>"/>
            <item stringID="Type" value="IOB"/>
            <item stringID="Direction" value="OUTPUT"/>
            <item label="IO&#xA;Standard" sort="smart" stringID="IO_STANDARD" value="LVCMOS25"/>
            <item label="Drive&#xA;Strength" stringID="DRIVE_STRENGTH" value="12"/>
            <item label="Slew&#xA;Rate" stringID="SLEW_RATE" value="SLOW"/>
            <item label="Reg&#xA;(s)" stringID="REGS" value="OFF1"/>
            <item label="IOB&#xA;Delay" stringID="IOB_DELAY" value="0 / 0"/>
          </row>
          <row stringID="row" value="6">
            <item label="IOB&#xA;Name" sort="smart" stringID="IOB_NAME" value="xps_gpio_0_GPIO_IO_O_pin&lt;3>"/>
            <item stringID="Type" value="IOB"/>
            <item stringID="Direction" value="OUTPUT"/>
            <item label="IO&#xA;Standard" sort="smart" stringID="IO_STANDARD" value="LVCMOS25"/>
            <item label="Drive&#xA;Strength" stringID="DRIVE_STRENGTH" value="12"/>
            <item label="Slew&#xA;Rate" stringID="SLEW_RATE" value="SLOW"/>
            <item label="Reg&#xA;(s)" stringID="REGS" value="OFF1"/>
            <item label="IOB&#xA;Delay" stringID="IOB_DELAY" value="0 / 0"/>
          </row>
          <row stringID="row" value="7">
            <item label="IOB&#xA;Name" sort="smart" stringID="IOB_NAME" value="xps_gpio_0_GPIO_IO_O_pin&lt;4>"/>
            <item stringID="Type" value="IOB"/>
            <item stringID="Direction" value="OUTPUT"/>
            <item label="IO&#xA;Standard" sort="smart" stringID="IO_STANDARD" value="LVCMOS25"/>
            <item label="Drive&#xA;Strength" stringID="DRIVE_STRENGTH" value="12"/>
            <item label="Slew&#xA;Rate" stringID="SLEW_RATE" value="SLOW"/>
            <item label="Reg&#xA;(s)" stringID="REGS" value="OFF1"/>
            <item label="IOB&#xA;Delay" stringID="IOB_DELAY" value="0 / 0"/>
          </row>
          <row stringID="row" value="8">
            <item label="IOB&#xA;Name" sort="smart" stringID="IOB_NAME" value="xps_gpio_0_GPIO_IO_O_pin&lt;5>"/>
            <item stringID="Type" value="IOB"/>
            <item stringID="Direction" value="OUTPUT"/>
            <item label="IO&#xA;Standard" sort="smart" stringID="IO_STANDARD" value="LVCMOS25"/>
            <item label="Drive&#xA;Strength" stringID="DRIVE_STRENGTH" value="12"/>
            <item label="Slew&#xA;Rate" stringID="SLEW_RATE" value="SLOW"/>
            <item label="Reg&#xA;(s)" stringID="REGS" value="OFF1"/>
            <item label="IOB&#xA;Delay" stringID="IOB_DELAY" value="0 / 0"/>
          </row>
          <row stringID="row" value="9">
            <item label="IOB&#xA;Name" sort="smart" stringID="IOB_NAME" value="xps_gpio_0_GPIO_IO_O_pin&lt;6>"/>
            <item stringID="Type" value="IOB"/>
            <item stringID="Direction" value="OUTPUT"/>
            <item label="IO&#xA;Standard" sort="smart" stringID="IO_STANDARD" value="LVCMOS25"/>
            <item label="Drive&#xA;Strength" stringID="DRIVE_STRENGTH" value="12"/>
            <item label="Slew&#xA;Rate" stringID="SLEW_RATE" value="SLOW"/>
            <item label="Reg&#xA;(s)" stringID="REGS" value="OFF1"/>
            <item label="IOB&#xA;Delay" stringID="IOB_DELAY" value="0 / 0"/>
          </row>
          <row stringID="row" value="10">
            <item label="IOB&#xA;Name" sort="smart" stringID="IOB_NAME" value="xps_gpio_0_GPIO_IO_O_pin&lt;7>"/>
            <item stringID="Type" value="IOB"/>
            <item stringID="Direction" value="OUTPUT"/>
            <item label="IO&#xA;Standard" sort="smart" stringID="IO_STANDARD" value="LVCMOS25"/>
            <item label="Drive&#xA;Strength" stringID="DRIVE_STRENGTH" value="12"/>
            <item label="Slew&#xA;Rate" stringID="SLEW_RATE" value="SLOW"/>
            <item label="Reg&#xA;(s)" stringID="REGS" value="OFF1"/>
            <item label="IOB&#xA;Delay" stringID="IOB_DELAY" value="0 / 0"/>
          </row>
          <row stringID="row" value="11">
            <item label="IOB&#xA;Name" sort="smart" stringID="IOB_NAME" value="xps_gpio_1_GPIO_IO_I_pin&lt;0>"/>
            <item stringID="Type" value="IBUF"/>
            <item stringID="Direction" value="INPUT"/>
            <item label="IO&#xA;Standard" sort="smart" stringID="IO_STANDARD" value="LVCMOS25"/>
            <item label="IOB&#xA;Delay" stringID="IOB_DELAY" value="0 / 0"/>
          </row>
          <row stringID="row" value="12">
            <item label="IOB&#xA;Name" sort="smart" stringID="IOB_NAME" value="xps_gpio_1_GPIO_IO_I_pin&lt;1>"/>
            <item stringID="Type" value="IBUF"/>
            <item stringID="Direction" value="INPUT"/>
            <item label="IO&#xA;Standard" sort="smart" stringID="IO_STANDARD" value="LVCMOS25"/>
            <item label="IOB&#xA;Delay" stringID="IOB_DELAY" value="0 / 0"/>
          </row>
          <row stringID="row" value="13">
            <item label="IOB&#xA;Name" sort="smart" stringID="IOB_NAME" value="xps_gpio_1_GPIO_IO_I_pin&lt;2>"/>
            <item stringID="Type" value="IBUF"/>
            <item stringID="Direction" value="INPUT"/>
            <item label="IO&#xA;Standard" sort="smart" stringID="IO_STANDARD" value="LVCMOS25"/>
            <item label="IOB&#xA;Delay" stringID="IOB_DELAY" value="0 / 0"/>
          </row>
          <row stringID="row" value="14">
            <item label="IOB&#xA;Name" sort="smart" stringID="IOB_NAME" value="xps_gpio_1_GPIO_IO_I_pin&lt;3>"/>
            <item stringID="Type" value="IBUF"/>
            <item stringID="Direction" value="INPUT"/>
            <item label="IO&#xA;Standard" sort="smart" stringID="IO_STANDARD" value="LVCMOS25"/>
            <item label="IOB&#xA;Delay" stringID="IOB_DELAY" value="0 / 0"/>
          </row>
          <row stringID="row" value="15">
            <item label="IOB&#xA;Name" sort="smart" stringID="IOB_NAME" value="xps_gpio_1_GPIO_IO_I_pin&lt;4>"/>
            <item stringID="Type" value="IBUF"/>
            <item stringID="Direction" value="INPUT"/>
            <item label="IO&#xA;Standard" sort="smart" stringID="IO_STANDARD" value="LVCMOS25"/>
            <item label="IOB&#xA;Delay" stringID="IOB_DELAY" value="0 / 0"/>
          </row>
          <row stringID="row" value="16">
            <item label="IOB&#xA;Name" sort="smart" stringID="IOB_NAME" value="xps_gpio_1_GPIO_IO_I_pin&lt;5>"/>
            <item stringID="Type" value="IBUF"/>
            <item stringID="Direction" value="INPUT"/>
            <item label="IO&#xA;Standard" sort="smart" stringID="IO_STANDARD" value="LVCMOS25"/>
            <item label="IOB&#xA;Delay" stringID="IOB_DELAY" value="0 / 0"/>
          </row>
          <row stringID="row" value="17">
            <item label="IOB&#xA;Name" sort="smart" stringID="IOB_NAME" value="xps_gpio_1_GPIO_IO_I_pin&lt;6>"/>
            <item stringID="Type" value="IBUF"/>
            <item stringID="Direction" value="INPUT"/>
            <item label="IO&#xA;Standard" sort="smart" stringID="IO_STANDARD" value="LVCMOS25"/>
            <item label="IOB&#xA;Delay" stringID="IOB_DELAY" value="0 / 0"/>
          </row>
          <row stringID="row" value="18">
            <item label="IOB&#xA;Name" sort="smart" stringID="IOB_NAME" value="xps_gpio_1_GPIO_IO_I_pin&lt;7>"/>
            <item stringID="Type" value="IBUF"/>
            <item stringID="Direction" value="INPUT"/>
            <item label="IO&#xA;Standard" sort="smart" stringID="IO_STANDARD" value="LVCMOS25"/>
            <item label="IOB&#xA;Delay" stringID="IOB_DELAY" value="0 / 0"/>
          </row>
          <row stringID="row" value="19">
            <item label="IOB&#xA;Name" sort="smart" stringID="IOB_NAME" value="xps_spi_0_MISO_pin"/>
            <item stringID="Type" value="IOB"/>
            <item stringID="Direction" value="BIDIR"/>
            <item label="IO&#xA;Standard" sort="smart" stringID="IO_STANDARD" value="LVCMOS25"/>
            <item label="Drive&#xA;Strength" stringID="DRIVE_STRENGTH" value="12"/>
            <item label="Slew&#xA;Rate" stringID="SLEW_RATE" value="SLOW"/>
            <item label="Reg&#xA;(s)" stringID="REGS" value="TFF1"/>
            <item label="IOB&#xA;Delay" stringID="IOB_DELAY" value="0 / 0"/>
          </row>
          <row stringID="row" value="20">
            <item label="IOB&#xA;Name" sort="smart" stringID="IOB_NAME" value="xps_spi_0_MOSI_pin"/>
            <item stringID="Type" value="IOB"/>
            <item stringID="Direction" value="BIDIR"/>
            <item label="IO&#xA;Standard" sort="smart" stringID="IO_STANDARD" value="LVCMOS25"/>
            <item label="Drive&#xA;Strength" stringID="DRIVE_STRENGTH" value="12"/>
            <item label="Slew&#xA;Rate" stringID="SLEW_RATE" value="SLOW"/>
            <item label="Reg&#xA;(s)" stringID="REGS" value="TFF1"/>
            <item label="IOB&#xA;Delay" stringID="IOB_DELAY" value="0 / 0"/>
          </row>
          <row stringID="row" value="21">
            <item label="IOB&#xA;Name" sort="smart" stringID="IOB_NAME" value="xps_spi_0_SCK_pin"/>
            <item stringID="Type" value="IOB"/>
            <item stringID="Direction" value="BIDIR"/>
            <item label="IO&#xA;Standard" sort="smart" stringID="IO_STANDARD" value="LVCMOS25"/>
            <item label="Drive&#xA;Strength" stringID="DRIVE_STRENGTH" value="12"/>
            <item label="Slew&#xA;Rate" stringID="SLEW_RATE" value="SLOW"/>
            <item label="Reg&#xA;(s)" stringID="REGS" value="IFF1 OFF1 TFF1"/>
            <item label="IOB&#xA;Delay" stringID="IOB_DELAY" value="0 / 3"/>
          </row>
          <row stringID="row" value="22">
            <item label="IOB&#xA;Name" sort="smart" stringID="IOB_NAME" value="xps_spi_0_SPISEL_pin"/>
            <item stringID="Type" value="IBUF"/>
            <item stringID="Direction" value="INPUT"/>
            <item label="IO&#xA;Standard" sort="smart" stringID="IO_STANDARD" value="LVCMOS25"/>
            <item label="Reg&#xA;(s)" stringID="REGS" value="IFF1"/>
            <item label="IOB&#xA;Delay" stringID="IOB_DELAY" value="0 / 3"/>
          </row>
          <row stringID="row" value="23">
            <item label="IOB&#xA;Name" sort="smart" stringID="IOB_NAME" value="xps_spi_0_SS_pin"/>
            <item stringID="Type" value="IOB"/>
            <item stringID="Direction" value="OUTPUT"/>
            <item label="IO&#xA;Standard" sort="smart" stringID="IO_STANDARD" value="LVCMOS25"/>
            <item label="Drive&#xA;Strength" stringID="DRIVE_STRENGTH" value="12"/>
            <item label="Slew&#xA;Rate" stringID="SLEW_RATE" value="SLOW"/>
            <item label="Reg&#xA;(s)" stringID="REGS" value="OFF1 TFF1"/>
            <item label="IOB&#xA;Delay" stringID="IOB_DELAY" value="0 / 0"/>
          </row>
          <row stringID="row" value="24">
            <item label="IOB&#xA;Name" sort="smart" stringID="IOB_NAME" value="xps_timer_0_GenerateOut0_pin"/>
            <item stringID="Type" value="IOB"/>
            <item stringID="Direction" value="OUTPUT"/>
            <item label="IO&#xA;Standard" sort="smart" stringID="IO_STANDARD" value="LVTTL"/>
            <item label="Drive&#xA;Strength" stringID="DRIVE_STRENGTH" value="6"/>
            <item label="Slew&#xA;Rate" stringID="SLEW_RATE" value="SLOW"/>
            <item label="IOB&#xA;Delay" stringID="IOB_DELAY" value="0 / 0"/>
          </row>
          <row stringID="row" value="25">
            <item label="IOB&#xA;Name" sort="smart" stringID="IOB_NAME" value="xps_timer_0_GenerateOut1_pin"/>
            <item stringID="Type" value="IOB"/>
            <item stringID="Direction" value="OUTPUT"/>
            <item label="IO&#xA;Standard" sort="smart" stringID="IO_STANDARD" value="LVTTL"/>
            <item label="Drive&#xA;Strength" stringID="DRIVE_STRENGTH" value="6"/>
            <item label="Slew&#xA;Rate" stringID="SLEW_RATE" value="SLOW"/>
            <item label="IOB&#xA;Delay" stringID="IOB_DELAY" value="0 / 0"/>
          </row>
          <row stringID="row" value="26">
            <item label="IOB&#xA;Name" sort="smart" stringID="IOB_NAME" value="xps_timer_0_PWM0_pin"/>
            <item stringID="Type" value="IOB"/>
            <item stringID="Direction" value="OUTPUT"/>
            <item label="IO&#xA;Standard" sort="smart" stringID="IO_STANDARD" value="LVTTL"/>
            <item label="Drive&#xA;Strength" stringID="DRIVE_STRENGTH" value="6"/>
            <item label="Slew&#xA;Rate" stringID="SLEW_RATE" value="SLOW"/>
            <item label="IOB&#xA;Delay" stringID="IOB_DELAY" value="0 / 0"/>
          </row>
        </table>
      </section>
      <section stringID="MAP_RPM_MACROS">
        <section stringID="MAP_SHAPE_SECTION">
          <item dataType="int" stringID="MAP_NUM_SHAPE" value="50"/>
        </section>
      </section>
      <section stringID="MAP_GUIDE_REPORT"/>
      <section stringID="MAP_AREA_GROUPS_PARTITIONS"/>
      <section stringID="MAP_TIMING_REPORT"/>
      <section stringID="MAP_CONFIGURATION_STRING_DETAILS"/>
      <section stringID="MAP_GENERAL_CONFIG_DATA">
        <item stringID="MAP_INIT_00" value="0000000000000000000000000000000000000000000000000000000000000000"/>
        <item stringID="MAP_INIT_01" value="0000000000000000000000000000000000000000000000000000000000000000"/>
        <item stringID="MAP_INIT_02" value="0000000000000000000000000000000000000000000000000000000000000000"/>
        <item stringID="MAP_INIT_03" value="0000000000000000000000000000000000000000000000000000000000000000"/>
        <item stringID="MAP_INIT_04" value="0000000000000000000000000000000000000000000000000000000000000000"/>
        <item stringID="MAP_INIT_05" value="0000000000000000000000000000000000000000000000000000000000000000"/>
        <item stringID="MAP_INIT_06" value="0000000000000000000000000000000000000000000000000000000000000000"/>
        <item stringID="MAP_INIT_07" value="0000000000000000000000000000000000000000000000000000000000000000"/>
        <item stringID="MAP_INIT_08" value="0000000000000000000000000000000000000000000000000000000000000000"/>
        <item stringID="MAP_INIT_09" value="0000000000000000000000000000000000000000000000000000000000000000"/>
        <item stringID="MAP_INIT_0A" value="0000000000000000000000000000000000000000000000000000000000000000"/>
        <item stringID="MAP_INIT_0B" value="0000000000000000000000000000000000000000000000000000000000000000"/>
        <item stringID="MAP_INIT_0C" value="0000000000000000000000000000000000000000000000000000000000000000"/>
        <item stringID="MAP_INIT_0D" value="0000000000000000000000000000000000000000000000000000000000000000"/>
        <item stringID="MAP_INIT_0E" value="0000000000000000000000000000000000000000000000000000000000000000"/>
        <item stringID="MAP_INIT_0F" value="0000000000000000000000000000000000000000000000000000000000000000"/>
        <item stringID="MAP_INIT_10" value="0000000000000000000000000000000000000000000000000000000000000000"/>
        <item stringID="MAP_INIT_11" value="0000000000000000000000000000000000000000000000000000000000000000"/>
        <item stringID="MAP_INIT_12" value="0000000000000000000000000000000000000000000000000000000000000000"/>
        <item stringID="MAP_INIT_13" value="0000000000000000000000000000000000000000000000000000000000000000"/>
        <item stringID="MAP_INIT_14" value="0000000000000000000000000000000000000000000000000000000000000000"/>
        <item stringID="MAP_INIT_15" value="0000000000000000000000000000000000000000000000000000000000000000"/>
        <item stringID="MAP_INIT_16" value="0000000000000000000000000000000000000000000000000000000000000000"/>
        <item stringID="MAP_INIT_17" value="0000000000000000000000000000000000000000000000000000000000000000"/>
        <item stringID="MAP_INIT_18" value="0000000000000000000000000000000000000000000000000000000000000000"/>
        <item stringID="MAP_INIT_19" value="0000000000000000000000000000000000000000000000000000000000000000"/>
        <item stringID="MAP_INIT_1A" value="0000000000000000000000000000000000000000000000000000000000000000"/>
        <item stringID="MAP_INIT_1B" value="0000000000000000000000000000000000000000000000000000000000000000"/>
        <item stringID="MAP_INIT_1C" value="0000000000000000000000000000000000000000000000000000000000000000"/>
        <item stringID="MAP_INIT_1D" value="0000000000000000000000000000000000000000000000000000000000000000"/>
        <item stringID="MAP_INIT_1E" value="0000000000000000000000000000000000000000000000000000000000000000"/>
        <item stringID="MAP_INIT_1F" value="0000000000000000000000000000000000000000000000000000000000000000"/>
        <item stringID="MAP_INIT_20" value="0000000000000000000000000000000000000000000000000000000000000000"/>
        <item stringID="MAP_INIT_21" value="0000000000000000000000000000000000000000000000000000000000000000"/>
        <item stringID="MAP_INIT_22" value="0000000000000000000000000000000000000000000000000000000000000000"/>
        <item stringID="MAP_INIT_23" value="0000000000000000000000000000000000000000000000000000000000000000"/>
        <item stringID="MAP_INIT_24" value="0000000000000000000000000000000000000000000000000000000000000000"/>
        <item stringID="MAP_INIT_25" value="0000000000000000000000000000000000000000000000000000000000000000"/>
        <item stringID="MAP_INIT_26" value="0000000000000000000000000000000000000000000000000000000000000000"/>
        <item stringID="MAP_INIT_27" value="0000000000000000000000000000000000000000000000000000000000000000"/>
        <item stringID="MAP_INIT_28" value="0000000000000000000000000000000000000000000000000000000000000000"/>
        <item stringID="MAP_INIT_29" value="0000000000000000000000000000000000000000000000000000000000000000"/>
        <item stringID="MAP_INIT_2A" value="0000000000000000000000000000000000000000000000000000000000000000"/>
        <item stringID="MAP_INIT_2B" value="0000000000000000000000000000000000000000000000000000000000000000"/>
        <item stringID="MAP_INIT_2C" value="0000000000000000000000000000000000000000000000000000000000000000"/>
        <item stringID="MAP_INIT_2D" value="0000000000000000000000000000000000000000000000000000000000000000"/>
        <item stringID="MAP_INIT_2E" value="0000000000000000000000000000000000000000000000000000000000000000"/>
        <item stringID="MAP_INIT_2F" value="0000000000000000000000000000000000000000000000000000000000000000"/>
        <item stringID="MAP_INIT_30" value="0000000000000000000000000000000000000000000000000000000000000000"/>
        <item stringID="MAP_INIT_31" value="0000000000000000000000000000000000000000000000000000000000000000"/>
        <item stringID="MAP_INIT_32" value="0000000000000000000000000000000000000000000000000000000000000000"/>
        <item stringID="MAP_INIT_33" value="0000000000000000000000000000000000000000000000000000000000000000"/>
        <item stringID="MAP_INIT_34" value="0000000000000000000000000000000000000000000000000000000000000000"/>
        <item stringID="MAP_INIT_35" value="0000000000000000000000000000000000000000000000000000000000000000"/>
        <item stringID="MAP_INIT_36" value="0000000000000000000000000000000000000000000000000000000000000000"/>
        <item stringID="MAP_INIT_37" value="0000000000000000000000000000000000000000000000000000000000000000"/>
        <item stringID="MAP_INIT_38" value="0000000000000000000000000000000000000000000000000000000000000000"/>
        <item stringID="MAP_INIT_39" value="0000000000000000000000000000000000000000000000000000000000000000"/>
        <item stringID="MAP_INIT_3A" value="0000000000000000000000000000000000000000000000000000000000000000"/>
        <item stringID="MAP_INIT_3B" value="0000000000000000000000000000000000000000000000000000000000000000"/>
        <item stringID="MAP_INIT_3C" value="0000000000000000000000000000000000000000000000000000000000000000"/>
        <item stringID="MAP_INIT_3D" value="0000000000000000000000000000000000000000000000000000000000000000"/>
        <item stringID="MAP_INIT_3E" value="0000000000000000000000000000000000000000000000000000000000000000"/>
        <item stringID="MAP_INIT_3F" value="0000000000000000000000000000000000000000000000000000000000000000"/>
        <item stringID="MAP_INIT_A" value="0"/>
        <item stringID="MAP_SRVAL_A" value="0"/>
        <item stringID="MAP_INIT_B" value="0"/>
        <item stringID="MAP_SRVAL_B" value="0"/>
        <item stringID="MAP_DISABLE_ATTR" value="LOW"/>
        <item stringID="MAP_CLKDV_DIVIDE" value="2"/>
        <item stringID="MAP_CLKOUT_PHASE_SHIFT" value="NONE"/>
        <item stringID="MAP_CLK_FEEDBACK" value="1X"/>
        <item stringID="MAP_DESKEW_ADJUST" value="6"/>
        <item stringID="MAP_DFS_FREQUENCY_MODE" value="LOW"/>
        <item stringID="MAP_DLL_FREQUENCY_MODE" value="LOW"/>
        <item stringID="MAP_DUTY_CYCLE_CORRECTION" value="TRUE"/>
        <item stringID="MAP_FACTORY_JF1" value="0XC0"/>
        <item stringID="MAP_FACTORY_JF2" value="0X80"/>
        <item stringID="MAP_CLKFX_DIVIDE" value="1"/>
        <item stringID="MAP_CLKFX_MULTIPLY" value="4"/>
        <item stringID="MAP_PHASE_SHIFT" value="0"/>
        <item stringID="MAP_X_CLKIN_PERIOD" value="20.0000000000000000"/>
      </section>
      <section stringID="MAP_CONTROL_SET_INFORMATION"/>
      <section stringID="MAP_MODULE_UTILIZATION">
        <tree stringID="MAP_MODULE_HIERARCHY">
          <property label="Partition" stringID="MAP_PARTITION"/>
          <property label="Slices" stringID="MAP_SLICES"/>
          <property label="Slice Reg" stringID="MAP_SLICE_REG"/>
          <property label="LUTs" stringID="MAP_LUTS"/>
          <property label="LUTRAM" stringID="MAP_LUTRAM"/>
          <property label="BRAM" stringID="MAP_BRAM"/>
          <property stringID="MAP_MULT18X18"/>
          <property label="BUFG" stringID="MAP_BUFG"/>
          <property label="DCM" stringID="MAP_DCM"/>
          <node label="Module Name" stringID="MAP_MODULE" value="system">
            <item label="Partition" stringID="MAP_PARTITION" value=""/>
            <item ACCUMULATED="2423" dataType="int" label="Slices" stringID="MAP_SLICES" value="0"/>
            <item ACCUMULATED="1619" dataType="int" label="Slice Reg" stringID="MAP_SLICE_REG" value="0"/>
            <item ACCUMULATED="2835" dataType="int" label="LUTs" stringID="MAP_LUTS" value="0"/>
            <item ACCUMULATED="531" dataType="int" label="LUTRAM" stringID="MAP_LUTRAM" value="0"/>
            <item ACCUMULATED="8" dataType="int" label="BRAM" stringID="MAP_BRAM" value="0"/>
            <item ACCUMULATED="0" dataType="int" stringID="MAP_MULT18X18" value="0"/>
            <item ACCUMULATED="1" dataType="int" label="BUFG" stringID="MAP_BUFG" value="0"/>
            <item ACCUMULATED="1" dataType="int" label="DCM" stringID="MAP_DCM" value="0"/>
            <node label="Module Name" stringID="MAP_MODULE" value="bram_block_0">
              <item label="Partition" stringID="MAP_PARTITION" value=""/>
              <item ACCUMULATED="0" dataType="int" label="Slices" stringID="MAP_SLICES" value="0"/>
              <item ACCUMULATED="0" dataType="int" label="Slice Reg" stringID="MAP_SLICE_REG" value="0"/>
              <item ACCUMULATED="0" dataType="int" label="LUTs" stringID="MAP_LUTS" value="0"/>
              <item ACCUMULATED="0" dataType="int" label="LUTRAM" stringID="MAP_LUTRAM" value="0"/>
              <item ACCUMULATED="8" dataType="int" label="BRAM" stringID="MAP_BRAM" value="0"/>
              <item ACCUMULATED="0" dataType="int" stringID="MAP_MULT18X18" value="0"/>
              <item ACCUMULATED="0" dataType="int" label="BUFG" stringID="MAP_BUFG" value="0"/>
              <item ACCUMULATED="0" dataType="int" label="DCM" stringID="MAP_DCM" value="0"/>
              <node label="Module Name" stringID="MAP_MODULE" value="bram_block_0">
                <item label="Partition" stringID="MAP_PARTITION" value=""/>
                <item ACCUMULATED="0" dataType="int" label="Slices" stringID="MAP_SLICES" value="0"/>
                <item ACCUMULATED="0" dataType="int" label="Slice Reg" stringID="MAP_SLICE_REG" value="0"/>
                <item ACCUMULATED="0" dataType="int" label="LUTs" stringID="MAP_LUTS" value="0"/>
                <item ACCUMULATED="0" dataType="int" label="LUTRAM" stringID="MAP_LUTRAM" value="0"/>
                <item ACCUMULATED="8" dataType="int" label="BRAM" stringID="MAP_BRAM" value="8"/>
                <item ACCUMULATED="0" dataType="int" stringID="MAP_MULT18X18" value="0"/>
                <item ACCUMULATED="0" dataType="int" label="BUFG" stringID="MAP_BUFG" value="0"/>
                <item ACCUMULATED="0" dataType="int" label="DCM" stringID="MAP_DCM" value="0"/>
              </node>
            </node>
            <node label="Module Name" stringID="MAP_MODULE" value="clock_generator_0">
              <item label="Partition" stringID="MAP_PARTITION" value=""/>
              <item ACCUMULATED="3" dataType="int" label="Slices" stringID="MAP_SLICES" value="0"/>
              <item ACCUMULATED="4" dataType="int" label="Slice Reg" stringID="MAP_SLICE_REG" value="0"/>
              <item ACCUMULATED="0" dataType="int" label="LUTs" stringID="MAP_LUTS" value="0"/>
              <item ACCUMULATED="0" dataType="int" label="LUTRAM" stringID="MAP_LUTRAM" value="0"/>
              <item ACCUMULATED="0" dataType="int" label="BRAM" stringID="MAP_BRAM" value="0"/>
              <item ACCUMULATED="0" dataType="int" stringID="MAP_MULT18X18" value="0"/>
              <item ACCUMULATED="1" dataType="int" label="BUFG" stringID="MAP_BUFG" value="0"/>
              <item ACCUMULATED="1" dataType="int" label="DCM" stringID="MAP_DCM" value="0"/>
              <node label="Module Name" stringID="MAP_MODULE" value="clock_generator_0">
                <item label="Partition" stringID="MAP_PARTITION" value=""/>
                <item ACCUMULATED="3" dataType="int" label="Slices" stringID="MAP_SLICES" value="0"/>
                <item ACCUMULATED="4" dataType="int" label="Slice Reg" stringID="MAP_SLICE_REG" value="0"/>
                <item ACCUMULATED="0" dataType="int" label="LUTs" stringID="MAP_LUTS" value="0"/>
                <item ACCUMULATED="0" dataType="int" label="LUTRAM" stringID="MAP_LUTRAM" value="0"/>
                <item ACCUMULATED="0" dataType="int" label="BRAM" stringID="MAP_BRAM" value="0"/>
                <item ACCUMULATED="0" dataType="int" stringID="MAP_MULT18X18" value="0"/>
                <item ACCUMULATED="1" dataType="int" label="BUFG" stringID="MAP_BUFG" value="1"/>
                <item ACCUMULATED="1" dataType="int" label="DCM" stringID="MAP_DCM" value="0"/>
                <node label="Module Name" stringID="MAP_MODULE" value="DCM0_INST">
                  <item label="Partition" stringID="MAP_PARTITION" value=""/>
                  <item ACCUMULATED="3" dataType="int" label="Slices" stringID="MAP_SLICES" value="3"/>
                  <item ACCUMULATED="4" dataType="int" label="Slice Reg" stringID="MAP_SLICE_REG" value="4"/>
                  <item ACCUMULATED="0" dataType="int" label="LUTs" stringID="MAP_LUTS" value="0"/>
                  <item ACCUMULATED="0" dataType="int" label="LUTRAM" stringID="MAP_LUTRAM" value="0"/>
                  <item ACCUMULATED="0" dataType="int" label="BRAM" stringID="MAP_BRAM" value="0"/>
                  <item ACCUMULATED="0" dataType="int" stringID="MAP_MULT18X18" value="0"/>
                  <item ACCUMULATED="0" dataType="int" label="BUFG" stringID="MAP_BUFG" value="0"/>
                  <item ACCUMULATED="1" dataType="int" label="DCM" stringID="MAP_DCM" value="1"/>
                </node>
              </node>
            </node>
            <node label="Module Name" stringID="MAP_MODULE" value="data_ctrl">
              <item label="Partition" stringID="MAP_PARTITION" value=""/>
              <item ACCUMULATED="5" dataType="int" label="Slices" stringID="MAP_SLICES" value="0"/>
              <item ACCUMULATED="2" dataType="int" label="Slice Reg" stringID="MAP_SLICE_REG" value="0"/>
              <item ACCUMULATED="4" dataType="int" label="LUTs" stringID="MAP_LUTS" value="0"/>
              <item ACCUMULATED="0" dataType="int" label="LUTRAM" stringID="MAP_LUTRAM" value="0"/>
              <item ACCUMULATED="0" dataType="int" label="BRAM" stringID="MAP_BRAM" value="0"/>
              <item ACCUMULATED="0" dataType="int" stringID="MAP_MULT18X18" value="0"/>
              <item ACCUMULATED="0" dataType="int" label="BUFG" stringID="MAP_BUFG" value="0"/>
              <item ACCUMULATED="0" dataType="int" label="DCM" stringID="MAP_DCM" value="0"/>
              <node label="Module Name" stringID="MAP_MODULE" value="data_ctrl">
                <item label="Partition" stringID="MAP_PARTITION" value=""/>
                <item ACCUMULATED="5" dataType="int" label="Slices" stringID="MAP_SLICES" value="5"/>
                <item ACCUMULATED="2" dataType="int" label="Slice Reg" stringID="MAP_SLICE_REG" value="2"/>
                <item ACCUMULATED="4" dataType="int" label="LUTs" stringID="MAP_LUTS" value="4"/>
                <item ACCUMULATED="0" dataType="int" label="LUTRAM" stringID="MAP_LUTRAM" value="0"/>
                <item ACCUMULATED="0" dataType="int" label="BRAM" stringID="MAP_BRAM" value="0"/>
                <item ACCUMULATED="0" dataType="int" stringID="MAP_MULT18X18" value="0"/>
                <item ACCUMULATED="0" dataType="int" label="BUFG" stringID="MAP_BUFG" value="0"/>
                <item ACCUMULATED="0" dataType="int" label="DCM" stringID="MAP_DCM" value="0"/>
              </node>
            </node>
            <node label="Module Name" stringID="MAP_MODULE" value="data_lmb">
              <item label="Partition" stringID="MAP_PARTITION" value=""/>
              <item ACCUMULATED="1" dataType="int" label="Slices" stringID="MAP_SLICES" value="0"/>
              <item ACCUMULATED="1" dataType="int" label="Slice Reg" stringID="MAP_SLICE_REG" value="0"/>
              <item ACCUMULATED="0" dataType="int" label="LUTs" stringID="MAP_LUTS" value="0"/>
              <item ACCUMULATED="0" dataType="int" label="LUTRAM" stringID="MAP_LUTRAM" value="0"/>
              <item ACCUMULATED="0" dataType="int" label="BRAM" stringID="MAP_BRAM" value="0"/>
              <item ACCUMULATED="0" dataType="int" stringID="MAP_MULT18X18" value="0"/>
              <item ACCUMULATED="0" dataType="int" label="BUFG" stringID="MAP_BUFG" value="0"/>
              <item ACCUMULATED="0" dataType="int" label="DCM" stringID="MAP_DCM" value="0"/>
              <node label="Module Name" stringID="MAP_MODULE" value="data_lmb">
                <item label="Partition" stringID="MAP_PARTITION" value=""/>
                <item ACCUMULATED="1" dataType="int" label="Slices" stringID="MAP_SLICES" value="1"/>
                <item ACCUMULATED="1" dataType="int" label="Slice Reg" stringID="MAP_SLICE_REG" value="1"/>
                <item ACCUMULATED="0" dataType="int" label="LUTs" stringID="MAP_LUTS" value="0"/>
                <item ACCUMULATED="0" dataType="int" label="LUTRAM" stringID="MAP_LUTRAM" value="0"/>
                <item ACCUMULATED="0" dataType="int" label="BRAM" stringID="MAP_BRAM" value="0"/>
                <item ACCUMULATED="0" dataType="int" stringID="MAP_MULT18X18" value="0"/>
                <item ACCUMULATED="0" dataType="int" label="BUFG" stringID="MAP_BUFG" value="0"/>
                <item ACCUMULATED="0" dataType="int" label="DCM" stringID="MAP_DCM" value="0"/>
              </node>
            </node>
            <node label="Module Name" stringID="MAP_MODULE" value="inst_ctrl">
              <item label="Partition" stringID="MAP_PARTITION" value=""/>
              <item ACCUMULATED="3" dataType="int" label="Slices" stringID="MAP_SLICES" value="0"/>
              <item ACCUMULATED="2" dataType="int" label="Slice Reg" stringID="MAP_SLICE_REG" value="0"/>
              <item ACCUMULATED="1" dataType="int" label="LUTs" stringID="MAP_LUTS" value="0"/>
              <item ACCUMULATED="0" dataType="int" label="LUTRAM" stringID="MAP_LUTRAM" value="0"/>
              <item ACCUMULATED="0" dataType="int" label="BRAM" stringID="MAP_BRAM" value="0"/>
              <item ACCUMULATED="0" dataType="int" stringID="MAP_MULT18X18" value="0"/>
              <item ACCUMULATED="0" dataType="int" label="BUFG" stringID="MAP_BUFG" value="0"/>
              <item ACCUMULATED="0" dataType="int" label="DCM" stringID="MAP_DCM" value="0"/>
              <node label="Module Name" stringID="MAP_MODULE" value="inst_ctrl">
                <item label="Partition" stringID="MAP_PARTITION" value=""/>
                <item ACCUMULATED="3" dataType="int" label="Slices" stringID="MAP_SLICES" value="3"/>
                <item ACCUMULATED="2" dataType="int" label="Slice Reg" stringID="MAP_SLICE_REG" value="2"/>
                <item ACCUMULATED="1" dataType="int" label="LUTs" stringID="MAP_LUTS" value="1"/>
                <item ACCUMULATED="0" dataType="int" label="LUTRAM" stringID="MAP_LUTRAM" value="0"/>
                <item ACCUMULATED="0" dataType="int" label="BRAM" stringID="MAP_BRAM" value="0"/>
                <item ACCUMULATED="0" dataType="int" stringID="MAP_MULT18X18" value="0"/>
                <item ACCUMULATED="0" dataType="int" label="BUFG" stringID="MAP_BUFG" value="0"/>
                <item ACCUMULATED="0" dataType="int" label="DCM" stringID="MAP_DCM" value="0"/>
              </node>
            </node>
            <node label="Module Name" stringID="MAP_MODULE" value="inst_lmb">
              <item label="Partition" stringID="MAP_PARTITION" value=""/>
              <item ACCUMULATED="1" dataType="int" label="Slices" stringID="MAP_SLICES" value="0"/>
              <item ACCUMULATED="1" dataType="int" label="Slice Reg" stringID="MAP_SLICE_REG" value="0"/>
              <item ACCUMULATED="0" dataType="int" label="LUTs" stringID="MAP_LUTS" value="0"/>
              <item ACCUMULATED="0" dataType="int" label="LUTRAM" stringID="MAP_LUTRAM" value="0"/>
              <item ACCUMULATED="0" dataType="int" label="BRAM" stringID="MAP_BRAM" value="0"/>
              <item ACCUMULATED="0" dataType="int" stringID="MAP_MULT18X18" value="0"/>
              <item ACCUMULATED="0" dataType="int" label="BUFG" stringID="MAP_BUFG" value="0"/>
              <item ACCUMULATED="0" dataType="int" label="DCM" stringID="MAP_DCM" value="0"/>
              <node label="Module Name" stringID="MAP_MODULE" value="inst_lmb">
                <item label="Partition" stringID="MAP_PARTITION" value=""/>
                <item ACCUMULATED="1" dataType="int" label="Slices" stringID="MAP_SLICES" value="1"/>
                <item ACCUMULATED="1" dataType="int" label="Slice Reg" stringID="MAP_SLICE_REG" value="1"/>
                <item ACCUMULATED="0" dataType="int" label="LUTs" stringID="MAP_LUTS" value="0"/>
                <item ACCUMULATED="0" dataType="int" label="LUTRAM" stringID="MAP_LUTRAM" value="0"/>
                <item ACCUMULATED="0" dataType="int" label="BRAM" stringID="MAP_BRAM" value="0"/>
                <item ACCUMULATED="0" dataType="int" stringID="MAP_MULT18X18" value="0"/>
                <item ACCUMULATED="0" dataType="int" label="BUFG" stringID="MAP_BUFG" value="0"/>
                <item ACCUMULATED="0" dataType="int" label="DCM" stringID="MAP_DCM" value="0"/>
              </node>
            </node>
            <node label="Module Name" stringID="MAP_MODULE" value="microblaze_0">
              <item label="Partition" stringID="MAP_PARTITION" value=""/>
              <item ACCUMULATED="1267" dataType="int" label="Slices" stringID="MAP_SLICES" value="0"/>
              <item ACCUMULATED="610" dataType="int" label="Slice Reg" stringID="MAP_SLICE_REG" value="0"/>
              <item ACCUMULATED="1775" dataType="int" label="LUTs" stringID="MAP_LUTS" value="0"/>
              <item ACCUMULATED="449" dataType="int" label="LUTRAM" stringID="MAP_LUTRAM" value="0"/>
              <item ACCUMULATED="0" dataType="int" label="BRAM" stringID="MAP_BRAM" value="0"/>
              <item ACCUMULATED="0" dataType="int" stringID="MAP_MULT18X18" value="0"/>
              <item ACCUMULATED="0" dataType="int" label="BUFG" stringID="MAP_BUFG" value="0"/>
              <item ACCUMULATED="0" dataType="int" label="DCM" stringID="MAP_DCM" value="0"/>
              <node label="Module Name" stringID="MAP_MODULE" value="microblaze_0">
                <item label="Partition" stringID="MAP_PARTITION" value=""/>
                <item ACCUMULATED="1267" dataType="int" label="Slices" stringID="MAP_SLICES" value="0"/>
                <item ACCUMULATED="610" dataType="int" label="Slice Reg" stringID="MAP_SLICE_REG" value="0"/>
                <item ACCUMULATED="1775" dataType="int" label="LUTs" stringID="MAP_LUTS" value="0"/>
                <item ACCUMULATED="449" dataType="int" label="LUTRAM" stringID="MAP_LUTRAM" value="0"/>
                <item ACCUMULATED="0" dataType="int" label="BRAM" stringID="MAP_BRAM" value="0"/>
                <item ACCUMULATED="0" dataType="int" stringID="MAP_MULT18X18" value="0"/>
                <item ACCUMULATED="0" dataType="int" label="BUFG" stringID="MAP_BUFG" value="0"/>
                <item ACCUMULATED="0" dataType="int" label="DCM" stringID="MAP_DCM" value="0"/>
                <node label="Module Name" stringID="MAP_MODULE" value="MicroBlaze_Core_I">
                  <item label="Partition" stringID="MAP_PARTITION" value=""/>
                  <item ACCUMULATED="1267" dataType="int" label="Slices" stringID="MAP_SLICES" value="32"/>
                  <item ACCUMULATED="610" dataType="int" label="Slice Reg" stringID="MAP_SLICE_REG" value="35"/>
                  <item ACCUMULATED="1775" dataType="int" label="LUTs" stringID="MAP_LUTS" value="2"/>
                  <item ACCUMULATED="449" dataType="int" label="LUTRAM" stringID="MAP_LUTRAM" value="0"/>
                  <item ACCUMULATED="0" dataType="int" label="BRAM" stringID="MAP_BRAM" value="0"/>
                  <item ACCUMULATED="0" dataType="int" stringID="MAP_MULT18X18" value="0"/>
                  <item ACCUMULATED="0" dataType="int" label="BUFG" stringID="MAP_BUFG" value="0"/>
                  <item ACCUMULATED="0" dataType="int" label="DCM" stringID="MAP_DCM" value="0"/>
                  <node label="Module Name" stringID="MAP_MODULE" value="Performance.Data_Flow_I">
                    <item label="Partition" stringID="MAP_PARTITION" value=""/>
                    <item ACCUMULATED="817" dataType="int" label="Slices" stringID="MAP_SLICES" value="135"/>
                    <item ACCUMULATED="290" dataType="int" label="Slice Reg" stringID="MAP_SLICE_REG" value="0"/>
                    <item ACCUMULATED="1267" dataType="int" label="LUTs" stringID="MAP_LUTS" value="213"/>
                    <item ACCUMULATED="384" dataType="int" label="LUTRAM" stringID="MAP_LUTRAM" value="0"/>
                    <item ACCUMULATED="0" dataType="int" label="BRAM" stringID="MAP_BRAM" value="0"/>
                    <item ACCUMULATED="0" dataType="int" stringID="MAP_MULT18X18" value="0"/>
                    <item ACCUMULATED="0" dataType="int" label="BUFG" stringID="MAP_BUFG" value="0"/>
                    <item ACCUMULATED="0" dataType="int" label="DCM" stringID="MAP_DCM" value="0"/>
                    <node label="Module Name" stringID="MAP_MODULE" value="ALU_I">
                      <item label="Partition" stringID="MAP_PARTITION" value=""/>
                      <item ACCUMULATED="34" dataType="int" label="Slices" stringID="MAP_SLICES" value="1"/>
                      <item ACCUMULATED="0" dataType="int" label="Slice Reg" stringID="MAP_SLICE_REG" value="0"/>
                      <item ACCUMULATED="35" dataType="int" label="LUTs" stringID="MAP_LUTS" value="1"/>
                      <item ACCUMULATED="0" dataType="int" label="LUTRAM" stringID="MAP_LUTRAM" value="0"/>
                      <item ACCUMULATED="0" dataType="int" label="BRAM" stringID="MAP_BRAM" value="0"/>
                      <item ACCUMULATED="0" dataType="int" stringID="MAP_MULT18X18" value="0"/>
                      <item ACCUMULATED="0" dataType="int" label="BUFG" stringID="MAP_BUFG" value="0"/>
                      <item ACCUMULATED="0" dataType="int" label="DCM" stringID="MAP_DCM" value="0"/>
                      <node label="Module Name" stringID="MAP_MODULE" value="FPGA_Target.ALL_Bits[0].ALU_Bit_I1">
                        <item label="Partition" stringID="MAP_PARTITION" value=""/>
                        <item ACCUMULATED="2" dataType="int" label="Slices" stringID="MAP_SLICES" value="2"/>
                        <item ACCUMULATED="0" dataType="int" label="Slice Reg" stringID="MAP_SLICE_REG" value="0"/>
                        <item ACCUMULATED="3" dataType="int" label="LUTs" stringID="MAP_LUTS" value="3"/>
                        <item ACCUMULATED="0" dataType="int" label="LUTRAM" stringID="MAP_LUTRAM" value="0"/>
                        <item ACCUMULATED="0" dataType="int" label="BRAM" stringID="MAP_BRAM" value="0"/>
                        <item ACCUMULATED="0" dataType="int" stringID="MAP_MULT18X18" value="0"/>
                        <item ACCUMULATED="0" dataType="int" label="BUFG" stringID="MAP_BUFG" value="0"/>
                        <item ACCUMULATED="0" dataType="int" label="DCM" stringID="MAP_DCM" value="0"/>
                      </node>
                      <node label="Module Name" stringID="MAP_MODULE" value="FPGA_Target.ALL_Bits[10].ALU_Bit_I1">
                        <item label="Partition" stringID="MAP_PARTITION" value=""/>
                        <item ACCUMULATED="1" dataType="int" label="Slices" stringID="MAP_SLICES" value="1"/>
                        <item ACCUMULATED="0" dataType="int" label="Slice Reg" stringID="MAP_SLICE_REG" value="0"/>
                        <item ACCUMULATED="1" dataType="int" label="LUTs" stringID="MAP_LUTS" value="1"/>
                        <item ACCUMULATED="0" dataType="int" label="LUTRAM" stringID="MAP_LUTRAM" value="0"/>
                        <item ACCUMULATED="0" dataType="int" label="BRAM" stringID="MAP_BRAM" value="0"/>
                        <item ACCUMULATED="0" dataType="int" stringID="MAP_MULT18X18" value="0"/>
                        <item ACCUMULATED="0" dataType="int" label="BUFG" stringID="MAP_BUFG" value="0"/>
                        <item ACCUMULATED="0" dataType="int" label="DCM" stringID="MAP_DCM" value="0"/>
                      </node>
                      <node label="Module Name" stringID="MAP_MODULE" value="FPGA_Target.ALL_Bits[11].ALU_Bit_I1">
                        <item label="Partition" stringID="MAP_PARTITION" value=""/>
                        <item ACCUMULATED="1" dataType="int" label="Slices" stringID="MAP_SLICES" value="1"/>
                        <item ACCUMULATED="0" dataType="int" label="Slice Reg" stringID="MAP_SLICE_REG" value="0"/>
                        <item ACCUMULATED="1" dataType="int" label="LUTs" stringID="MAP_LUTS" value="1"/>
                        <item ACCUMULATED="0" dataType="int" label="LUTRAM" stringID="MAP_LUTRAM" value="0"/>
                        <item ACCUMULATED="0" dataType="int" label="BRAM" stringID="MAP_BRAM" value="0"/>
                        <item ACCUMULATED="0" dataType="int" stringID="MAP_MULT18X18" value="0"/>
                        <item ACCUMULATED="0" dataType="int" label="BUFG" stringID="MAP_BUFG" value="0"/>
                        <item ACCUMULATED="0" dataType="int" label="DCM" stringID="MAP_DCM" value="0"/>
                      </node>
                      <node label="Module Name" stringID="MAP_MODULE" value="FPGA_Target.ALL_Bits[12].ALU_Bit_I1">
                        <item label="Partition" stringID="MAP_PARTITION" value=""/>
                        <item ACCUMULATED="1" dataType="int" label="Slices" stringID="MAP_SLICES" value="1"/>
                        <item ACCUMULATED="0" dataType="int" label="Slice Reg" stringID="MAP_SLICE_REG" value="0"/>
                        <item ACCUMULATED="1" dataType="int" label="LUTs" stringID="MAP_LUTS" value="1"/>
                        <item ACCUMULATED="0" dataType="int" label="LUTRAM" stringID="MAP_LUTRAM" value="0"/>
                        <item ACCUMULATED="0" dataType="int" label="BRAM" stringID="MAP_BRAM" value="0"/>
                        <item ACCUMULATED="0" dataType="int" stringID="MAP_MULT18X18" value="0"/>
                        <item ACCUMULATED="0" dataType="int" label="BUFG" stringID="MAP_BUFG" value="0"/>
                        <item ACCUMULATED="0" dataType="int" label="DCM" stringID="MAP_DCM" value="0"/>
                      </node>
                      <node label="Module Name" stringID="MAP_MODULE" value="FPGA_Target.ALL_Bits[13].ALU_Bit_I1">
                        <item label="Partition" stringID="MAP_PARTITION" value=""/>
                        <item ACCUMULATED="1" dataType="int" label="Slices" stringID="MAP_SLICES" value="1"/>
                        <item ACCUMULATED="0" dataType="int" label="Slice Reg" stringID="MAP_SLICE_REG" value="0"/>
                        <item ACCUMULATED="1" dataType="int" label="LUTs" stringID="MAP_LUTS" value="1"/>
                        <item ACCUMULATED="0" dataType="int" label="LUTRAM" stringID="MAP_LUTRAM" value="0"/>
                        <item ACCUMULATED="0" dataType="int" label="BRAM" stringID="MAP_BRAM" value="0"/>
                        <item ACCUMULATED="0" dataType="int" stringID="MAP_MULT18X18" value="0"/>
                        <item ACCUMULATED="0" dataType="int" label="BUFG" stringID="MAP_BUFG" value="0"/>
                        <item ACCUMULATED="0" dataType="int" label="DCM" stringID="MAP_DCM" value="0"/>
                      </node>
                      <node label="Module Name" stringID="MAP_MODULE" value="FPGA_Target.ALL_Bits[14].ALU_Bit_I1">
                        <item label="Partition" stringID="MAP_PARTITION" value=""/>
                        <item ACCUMULATED="1" dataType="int" label="Slices" stringID="MAP_SLICES" value="1"/>
                        <item ACCUMULATED="0" dataType="int" label="Slice Reg" stringID="MAP_SLICE_REG" value="0"/>
                        <item ACCUMULATED="1" dataType="int" label="LUTs" stringID="MAP_LUTS" value="1"/>
                        <item ACCUMULATED="0" dataType="int" label="LUTRAM" stringID="MAP_LUTRAM" value="0"/>
                        <item ACCUMULATED="0" dataType="int" label="BRAM" stringID="MAP_BRAM" value="0"/>
                        <item ACCUMULATED="0" dataType="int" stringID="MAP_MULT18X18" value="0"/>
                        <item ACCUMULATED="0" dataType="int" label="BUFG" stringID="MAP_BUFG" value="0"/>
                        <item ACCUMULATED="0" dataType="int" label="DCM" stringID="MAP_DCM" value="0"/>
                      </node>
                      <node label="Module Name" stringID="MAP_MODULE" value="FPGA_Target.ALL_Bits[15].ALU_Bit_I1">
                        <item label="Partition" stringID="MAP_PARTITION" value=""/>
                        <item ACCUMULATED="1" dataType="int" label="Slices" stringID="MAP_SLICES" value="1"/>
                        <item ACCUMULATED="0" dataType="int" label="Slice Reg" stringID="MAP_SLICE_REG" value="0"/>
                        <item ACCUMULATED="1" dataType="int" label="LUTs" stringID="MAP_LUTS" value="1"/>
                        <item ACCUMULATED="0" dataType="int" label="LUTRAM" stringID="MAP_LUTRAM" value="0"/>
                        <item ACCUMULATED="0" dataType="int" label="BRAM" stringID="MAP_BRAM" value="0"/>
                        <item ACCUMULATED="0" dataType="int" stringID="MAP_MULT18X18" value="0"/>
                        <item ACCUMULATED="0" dataType="int" label="BUFG" stringID="MAP_BUFG" value="0"/>
                        <item ACCUMULATED="0" dataType="int" label="DCM" stringID="MAP_DCM" value="0"/>
                      </node>
                      <node label="Module Name" stringID="MAP_MODULE" value="FPGA_Target.ALL_Bits[16].ALU_Bit_I1">
                        <item label="Partition" stringID="MAP_PARTITION" value=""/>
                        <item ACCUMULATED="1" dataType="int" label="Slices" stringID="MAP_SLICES" value="1"/>
                        <item ACCUMULATED="0" dataType="int" label="Slice Reg" stringID="MAP_SLICE_REG" value="0"/>
                        <item ACCUMULATED="1" dataType="int" label="LUTs" stringID="MAP_LUTS" value="1"/>
                        <item ACCUMULATED="0" dataType="int" label="LUTRAM" stringID="MAP_LUTRAM" value="0"/>
                        <item ACCUMULATED="0" dataType="int" label="BRAM" stringID="MAP_BRAM" value="0"/>
                        <item ACCUMULATED="0" dataType="int" stringID="MAP_MULT18X18" value="0"/>
                        <item ACCUMULATED="0" dataType="int" label="BUFG" stringID="MAP_BUFG" value="0"/>
                        <item ACCUMULATED="0" dataType="int" label="DCM" stringID="MAP_DCM" value="0"/>
                      </node>
                      <node label="Module Name" stringID="MAP_MODULE" value="FPGA_Target.ALL_Bits[17].ALU_Bit_I1">
                        <item label="Partition" stringID="MAP_PARTITION" value=""/>
                        <item ACCUMULATED="1" dataType="int" label="Slices" stringID="MAP_SLICES" value="1"/>
                        <item ACCUMULATED="0" dataType="int" label="Slice Reg" stringID="MAP_SLICE_REG" value="0"/>
                        <item ACCUMULATED="1" dataType="int" label="LUTs" stringID="MAP_LUTS" value="1"/>
                        <item ACCUMULATED="0" dataType="int" label="LUTRAM" stringID="MAP_LUTRAM" value="0"/>
                        <item ACCUMULATED="0" dataType="int" label="BRAM" stringID="MAP_BRAM" value="0"/>
                        <item ACCUMULATED="0" dataType="int" stringID="MAP_MULT18X18" value="0"/>
                        <item ACCUMULATED="0" dataType="int" label="BUFG" stringID="MAP_BUFG" value="0"/>
                        <item ACCUMULATED="0" dataType="int" label="DCM" stringID="MAP_DCM" value="0"/>
                      </node>
                      <node label="Module Name" stringID="MAP_MODULE" value="FPGA_Target.ALL_Bits[18].ALU_Bit_I1">
                        <item label="Partition" stringID="MAP_PARTITION" value=""/>
                        <item ACCUMULATED="1" dataType="int" label="Slices" stringID="MAP_SLICES" value="1"/>
                        <item ACCUMULATED="0" dataType="int" label="Slice Reg" stringID="MAP_SLICE_REG" value="0"/>
                        <item ACCUMULATED="1" dataType="int" label="LUTs" stringID="MAP_LUTS" value="1"/>
                        <item ACCUMULATED="0" dataType="int" label="LUTRAM" stringID="MAP_LUTRAM" value="0"/>
                        <item ACCUMULATED="0" dataType="int" label="BRAM" stringID="MAP_BRAM" value="0"/>
                        <item ACCUMULATED="0" dataType="int" stringID="MAP_MULT18X18" value="0"/>
                        <item ACCUMULATED="0" dataType="int" label="BUFG" stringID="MAP_BUFG" value="0"/>
                        <item ACCUMULATED="0" dataType="int" label="DCM" stringID="MAP_DCM" value="0"/>
                      </node>
                      <node label="Module Name" stringID="MAP_MODULE" value="FPGA_Target.ALL_Bits[19].ALU_Bit_I1">
                        <item label="Partition" stringID="MAP_PARTITION" value=""/>
                        <item ACCUMULATED="1" dataType="int" label="Slices" stringID="MAP_SLICES" value="1"/>
                        <item ACCUMULATED="0" dataType="int" label="Slice Reg" stringID="MAP_SLICE_REG" value="0"/>
                        <item ACCUMULATED="1" dataType="int" label="LUTs" stringID="MAP_LUTS" value="1"/>
                        <item ACCUMULATED="0" dataType="int" label="LUTRAM" stringID="MAP_LUTRAM" value="0"/>
                        <item ACCUMULATED="0" dataType="int" label="BRAM" stringID="MAP_BRAM" value="0"/>
                        <item ACCUMULATED="0" dataType="int" stringID="MAP_MULT18X18" value="0"/>
                        <item ACCUMULATED="0" dataType="int" label="BUFG" stringID="MAP_BUFG" value="0"/>
                        <item ACCUMULATED="0" dataType="int" label="DCM" stringID="MAP_DCM" value="0"/>
                      </node>
                      <node label="Module Name" stringID="MAP_MODULE" value="FPGA_Target.ALL_Bits[1].ALU_Bit_I1">
                        <item label="Partition" stringID="MAP_PARTITION" value=""/>
                        <item ACCUMULATED="1" dataType="int" label="Slices" stringID="MAP_SLICES" value="1"/>
                        <item ACCUMULATED="0" dataType="int" label="Slice Reg" stringID="MAP_SLICE_REG" value="0"/>
                        <item ACCUMULATED="1" dataType="int" label="LUTs" stringID="MAP_LUTS" value="1"/>
                        <item ACCUMULATED="0" dataType="int" label="LUTRAM" stringID="MAP_LUTRAM" value="0"/>
                        <item ACCUMULATED="0" dataType="int" label="BRAM" stringID="MAP_BRAM" value="0"/>
                        <item ACCUMULATED="0" dataType="int" stringID="MAP_MULT18X18" value="0"/>
                        <item ACCUMULATED="0" dataType="int" label="BUFG" stringID="MAP_BUFG" value="0"/>
                        <item ACCUMULATED="0" dataType="int" label="DCM" stringID="MAP_DCM" value="0"/>
                      </node>
                      <node label="Module Name" stringID="MAP_MODULE" value="FPGA_Target.ALL_Bits[20].ALU_Bit_I1">
                        <item label="Partition" stringID="MAP_PARTITION" value=""/>
                        <item ACCUMULATED="1" dataType="int" label="Slices" stringID="MAP_SLICES" value="1"/>
                        <item ACCUMULATED="0" dataType="int" label="Slice Reg" stringID="MAP_SLICE_REG" value="0"/>
                        <item ACCUMULATED="1" dataType="int" label="LUTs" stringID="MAP_LUTS" value="1"/>
                        <item ACCUMULATED="0" dataType="int" label="LUTRAM" stringID="MAP_LUTRAM" value="0"/>
                        <item ACCUMULATED="0" dataType="int" label="BRAM" stringID="MAP_BRAM" value="0"/>
                        <item ACCUMULATED="0" dataType="int" stringID="MAP_MULT18X18" value="0"/>
                        <item ACCUMULATED="0" dataType="int" label="BUFG" stringID="MAP_BUFG" value="0"/>
                        <item ACCUMULATED="0" dataType="int" label="DCM" stringID="MAP_DCM" value="0"/>
                      </node>
                      <node label="Module Name" stringID="MAP_MODULE" value="FPGA_Target.ALL_Bits[21].ALU_Bit_I1">
                        <item label="Partition" stringID="MAP_PARTITION" value=""/>
                        <item ACCUMULATED="1" dataType="int" label="Slices" stringID="MAP_SLICES" value="1"/>
                        <item ACCUMULATED="0" dataType="int" label="Slice Reg" stringID="MAP_SLICE_REG" value="0"/>
                        <item ACCUMULATED="1" dataType="int" label="LUTs" stringID="MAP_LUTS" value="1"/>
                        <item ACCUMULATED="0" dataType="int" label="LUTRAM" stringID="MAP_LUTRAM" value="0"/>
                        <item ACCUMULATED="0" dataType="int" label="BRAM" stringID="MAP_BRAM" value="0"/>
                        <item ACCUMULATED="0" dataType="int" stringID="MAP_MULT18X18" value="0"/>
                        <item ACCUMULATED="0" dataType="int" label="BUFG" stringID="MAP_BUFG" value="0"/>
                        <item ACCUMULATED="0" dataType="int" label="DCM" stringID="MAP_DCM" value="0"/>
                      </node>
                      <node label="Module Name" stringID="MAP_MODULE" value="FPGA_Target.ALL_Bits[22].ALU_Bit_I1">
                        <item label="Partition" stringID="MAP_PARTITION" value=""/>
                        <item ACCUMULATED="1" dataType="int" label="Slices" stringID="MAP_SLICES" value="1"/>
                        <item ACCUMULATED="0" dataType="int" label="Slice Reg" stringID="MAP_SLICE_REG" value="0"/>
                        <item ACCUMULATED="1" dataType="int" label="LUTs" stringID="MAP_LUTS" value="1"/>
                        <item ACCUMULATED="0" dataType="int" label="LUTRAM" stringID="MAP_LUTRAM" value="0"/>
                        <item ACCUMULATED="0" dataType="int" label="BRAM" stringID="MAP_BRAM" value="0"/>
                        <item ACCUMULATED="0" dataType="int" stringID="MAP_MULT18X18" value="0"/>
                        <item ACCUMULATED="0" dataType="int" label="BUFG" stringID="MAP_BUFG" value="0"/>
                        <item ACCUMULATED="0" dataType="int" label="DCM" stringID="MAP_DCM" value="0"/>
                      </node>
                      <node label="Module Name" stringID="MAP_MODULE" value="FPGA_Target.ALL_Bits[23].ALU_Bit_I1">
                        <item label="Partition" stringID="MAP_PARTITION" value=""/>
                        <item ACCUMULATED="1" dataType="int" label="Slices" stringID="MAP_SLICES" value="1"/>
                        <item ACCUMULATED="0" dataType="int" label="Slice Reg" stringID="MAP_SLICE_REG" value="0"/>
                        <item ACCUMULATED="1" dataType="int" label="LUTs" stringID="MAP_LUTS" value="1"/>
                        <item ACCUMULATED="0" dataType="int" label="LUTRAM" stringID="MAP_LUTRAM" value="0"/>
                        <item ACCUMULATED="0" dataType="int" label="BRAM" stringID="MAP_BRAM" value="0"/>
                        <item ACCUMULATED="0" dataType="int" stringID="MAP_MULT18X18" value="0"/>
                        <item ACCUMULATED="0" dataType="int" label="BUFG" stringID="MAP_BUFG" value="0"/>
                        <item ACCUMULATED="0" dataType="int" label="DCM" stringID="MAP_DCM" value="0"/>
                      </node>
                      <node label="Module Name" stringID="MAP_MODULE" value="FPGA_Target.ALL_Bits[24].ALU_Bit_I1">
                        <item label="Partition" stringID="MAP_PARTITION" value=""/>
                        <item ACCUMULATED="1" dataType="int" label="Slices" stringID="MAP_SLICES" value="1"/>
                        <item ACCUMULATED="0" dataType="int" label="Slice Reg" stringID="MAP_SLICE_REG" value="0"/>
                        <item ACCUMULATED="1" dataType="int" label="LUTs" stringID="MAP_LUTS" value="1"/>
                        <item ACCUMULATED="0" dataType="int" label="LUTRAM" stringID="MAP_LUTRAM" value="0"/>
                        <item ACCUMULATED="0" dataType="int" label="BRAM" stringID="MAP_BRAM" value="0"/>
                        <item ACCUMULATED="0" dataType="int" stringID="MAP_MULT18X18" value="0"/>
                        <item ACCUMULATED="0" dataType="int" label="BUFG" stringID="MAP_BUFG" value="0"/>
                        <item ACCUMULATED="0" dataType="int" label="DCM" stringID="MAP_DCM" value="0"/>
                      </node>
                      <node label="Module Name" stringID="MAP_MODULE" value="FPGA_Target.ALL_Bits[25].ALU_Bit_I1">
                        <item label="Partition" stringID="MAP_PARTITION" value=""/>
                        <item ACCUMULATED="1" dataType="int" label="Slices" stringID="MAP_SLICES" value="1"/>
                        <item ACCUMULATED="0" dataType="int" label="Slice Reg" stringID="MAP_SLICE_REG" value="0"/>
                        <item ACCUMULATED="1" dataType="int" label="LUTs" stringID="MAP_LUTS" value="1"/>
                        <item ACCUMULATED="0" dataType="int" label="LUTRAM" stringID="MAP_LUTRAM" value="0"/>
                        <item ACCUMULATED="0" dataType="int" label="BRAM" stringID="MAP_BRAM" value="0"/>
                        <item ACCUMULATED="0" dataType="int" stringID="MAP_MULT18X18" value="0"/>
                        <item ACCUMULATED="0" dataType="int" label="BUFG" stringID="MAP_BUFG" value="0"/>
                        <item ACCUMULATED="0" dataType="int" label="DCM" stringID="MAP_DCM" value="0"/>
                      </node>
                      <node label="Module Name" stringID="MAP_MODULE" value="FPGA_Target.ALL_Bits[26].ALU_Bit_I1">
                        <item label="Partition" stringID="MAP_PARTITION" value=""/>
                        <item ACCUMULATED="1" dataType="int" label="Slices" stringID="MAP_SLICES" value="1"/>
                        <item ACCUMULATED="0" dataType="int" label="Slice Reg" stringID="MAP_SLICE_REG" value="0"/>
                        <item ACCUMULATED="1" dataType="int" label="LUTs" stringID="MAP_LUTS" value="1"/>
                        <item ACCUMULATED="0" dataType="int" label="LUTRAM" stringID="MAP_LUTRAM" value="0"/>
                        <item ACCUMULATED="0" dataType="int" label="BRAM" stringID="MAP_BRAM" value="0"/>
                        <item ACCUMULATED="0" dataType="int" stringID="MAP_MULT18X18" value="0"/>
                        <item ACCUMULATED="0" dataType="int" label="BUFG" stringID="MAP_BUFG" value="0"/>
                        <item ACCUMULATED="0" dataType="int" label="DCM" stringID="MAP_DCM" value="0"/>
                      </node>
                      <node label="Module Name" stringID="MAP_MODULE" value="FPGA_Target.ALL_Bits[27].ALU_Bit_I1">
                        <item label="Partition" stringID="MAP_PARTITION" value=""/>
                        <item ACCUMULATED="1" dataType="int" label="Slices" stringID="MAP_SLICES" value="1"/>
                        <item ACCUMULATED="0" dataType="int" label="Slice Reg" stringID="MAP_SLICE_REG" value="0"/>
                        <item ACCUMULATED="1" dataType="int" label="LUTs" stringID="MAP_LUTS" value="1"/>
                        <item ACCUMULATED="0" dataType="int" label="LUTRAM" stringID="MAP_LUTRAM" value="0"/>
                        <item ACCUMULATED="0" dataType="int" label="BRAM" stringID="MAP_BRAM" value="0"/>
                        <item ACCUMULATED="0" dataType="int" stringID="MAP_MULT18X18" value="0"/>
                        <item ACCUMULATED="0" dataType="int" label="BUFG" stringID="MAP_BUFG" value="0"/>
                        <item ACCUMULATED="0" dataType="int" label="DCM" stringID="MAP_DCM" value="0"/>
                      </node>
                      <node label="Module Name" stringID="MAP_MODULE" value="FPGA_Target.ALL_Bits[28].ALU_Bit_I1">
                        <item label="Partition" stringID="MAP_PARTITION" value=""/>
                        <item ACCUMULATED="1" dataType="int" label="Slices" stringID="MAP_SLICES" value="1"/>
                        <item ACCUMULATED="0" dataType="int" label="Slice Reg" stringID="MAP_SLICE_REG" value="0"/>
                        <item ACCUMULATED="1" dataType="int" label="LUTs" stringID="MAP_LUTS" value="1"/>
                        <item ACCUMULATED="0" dataType="int" label="LUTRAM" stringID="MAP_LUTRAM" value="0"/>
                        <item ACCUMULATED="0" dataType="int" label="BRAM" stringID="MAP_BRAM" value="0"/>
                        <item ACCUMULATED="0" dataType="int" stringID="MAP_MULT18X18" value="0"/>
                        <item ACCUMULATED="0" dataType="int" label="BUFG" stringID="MAP_BUFG" value="0"/>
                        <item ACCUMULATED="0" dataType="int" label="DCM" stringID="MAP_DCM" value="0"/>
                      </node>
                      <node label="Module Name" stringID="MAP_MODULE" value="FPGA_Target.ALL_Bits[29].ALU_Bit_I1">
                        <item label="Partition" stringID="MAP_PARTITION" value=""/>
                        <item ACCUMULATED="1" dataType="int" label="Slices" stringID="MAP_SLICES" value="1"/>
                        <item ACCUMULATED="0" dataType="int" label="Slice Reg" stringID="MAP_SLICE_REG" value="0"/>
                        <item ACCUMULATED="1" dataType="int" label="LUTs" stringID="MAP_LUTS" value="1"/>
                        <item ACCUMULATED="0" dataType="int" label="LUTRAM" stringID="MAP_LUTRAM" value="0"/>
                        <item ACCUMULATED="0" dataType="int" label="BRAM" stringID="MAP_BRAM" value="0"/>
                        <item ACCUMULATED="0" dataType="int" stringID="MAP_MULT18X18" value="0"/>
                        <item ACCUMULATED="0" dataType="int" label="BUFG" stringID="MAP_BUFG" value="0"/>
                        <item ACCUMULATED="0" dataType="int" label="DCM" stringID="MAP_DCM" value="0"/>
                      </node>
                      <node label="Module Name" stringID="MAP_MODULE" value="FPGA_Target.ALL_Bits[2].ALU_Bit_I1">
                        <item label="Partition" stringID="MAP_PARTITION" value=""/>
                        <item ACCUMULATED="1" dataType="int" label="Slices" stringID="MAP_SLICES" value="1"/>
                        <item ACCUMULATED="0" dataType="int" label="Slice Reg" stringID="MAP_SLICE_REG" value="0"/>
                        <item ACCUMULATED="1" dataType="int" label="LUTs" stringID="MAP_LUTS" value="1"/>
                        <item ACCUMULATED="0" dataType="int" label="LUTRAM" stringID="MAP_LUTRAM" value="0"/>
                        <item ACCUMULATED="0" dataType="int" label="BRAM" stringID="MAP_BRAM" value="0"/>
                        <item ACCUMULATED="0" dataType="int" stringID="MAP_MULT18X18" value="0"/>
                        <item ACCUMULATED="0" dataType="int" label="BUFG" stringID="MAP_BUFG" value="0"/>
                        <item ACCUMULATED="0" dataType="int" label="DCM" stringID="MAP_DCM" value="0"/>
                      </node>
                      <node label="Module Name" stringID="MAP_MODULE" value="FPGA_Target.ALL_Bits[30].ALU_Bit_I1">
                        <item label="Partition" stringID="MAP_PARTITION" value=""/>
                        <item ACCUMULATED="1" dataType="int" label="Slices" stringID="MAP_SLICES" value="1"/>
                        <item ACCUMULATED="0" dataType="int" label="Slice Reg" stringID="MAP_SLICE_REG" value="0"/>
                        <item ACCUMULATED="1" dataType="int" label="LUTs" stringID="MAP_LUTS" value="1"/>
                        <item ACCUMULATED="0" dataType="int" label="LUTRAM" stringID="MAP_LUTRAM" value="0"/>
                        <item ACCUMULATED="0" dataType="int" label="BRAM" stringID="MAP_BRAM" value="0"/>
                        <item ACCUMULATED="0" dataType="int" stringID="MAP_MULT18X18" value="0"/>
                        <item ACCUMULATED="0" dataType="int" label="BUFG" stringID="MAP_BUFG" value="0"/>
                        <item ACCUMULATED="0" dataType="int" label="DCM" stringID="MAP_DCM" value="0"/>
                      </node>
                      <node label="Module Name" stringID="MAP_MODULE" value="FPGA_Target.ALL_Bits[31].ALU_Bit_I1">
                        <item label="Partition" stringID="MAP_PARTITION" value=""/>
                        <item ACCUMULATED="1" dataType="int" label="Slices" stringID="MAP_SLICES" value="1"/>
                        <item ACCUMULATED="0" dataType="int" label="Slice Reg" stringID="MAP_SLICE_REG" value="0"/>
                        <item ACCUMULATED="1" dataType="int" label="LUTs" stringID="MAP_LUTS" value="1"/>
                        <item ACCUMULATED="0" dataType="int" label="LUTRAM" stringID="MAP_LUTRAM" value="0"/>
                        <item ACCUMULATED="0" dataType="int" label="BRAM" stringID="MAP_BRAM" value="0"/>
                        <item ACCUMULATED="0" dataType="int" stringID="MAP_MULT18X18" value="0"/>
                        <item ACCUMULATED="0" dataType="int" label="BUFG" stringID="MAP_BUFG" value="0"/>
                        <item ACCUMULATED="0" dataType="int" label="DCM" stringID="MAP_DCM" value="0"/>
                      </node>
                      <node label="Module Name" stringID="MAP_MODULE" value="FPGA_Target.ALL_Bits[3].ALU_Bit_I1">
                        <item label="Partition" stringID="MAP_PARTITION" value=""/>
                        <item ACCUMULATED="1" dataType="int" label="Slices" stringID="MAP_SLICES" value="1"/>
                        <item ACCUMULATED="0" dataType="int" label="Slice Reg" stringID="MAP_SLICE_REG" value="0"/>
                        <item ACCUMULATED="1" dataType="int" label="LUTs" stringID="MAP_LUTS" value="1"/>
                        <item ACCUMULATED="0" dataType="int" label="LUTRAM" stringID="MAP_LUTRAM" value="0"/>
                        <item ACCUMULATED="0" dataType="int" label="BRAM" stringID="MAP_BRAM" value="0"/>
                        <item ACCUMULATED="0" dataType="int" stringID="MAP_MULT18X18" value="0"/>
                        <item ACCUMULATED="0" dataType="int" label="BUFG" stringID="MAP_BUFG" value="0"/>
                        <item ACCUMULATED="0" dataType="int" label="DCM" stringID="MAP_DCM" value="0"/>
                      </node>
                      <node label="Module Name" stringID="MAP_MODULE" value="FPGA_Target.ALL_Bits[4].ALU_Bit_I1">
                        <item label="Partition" stringID="MAP_PARTITION" value=""/>
                        <item ACCUMULATED="1" dataType="int" label="Slices" stringID="MAP_SLICES" value="1"/>
[...]
                <item ACCUMULATED="301" dataType="int" label="Slice Reg" stringID="MAP_SLICE_REG" value="0"/>
                <item ACCUMULATED="362" dataType="int" label="LUTs" stringID="MAP_LUTS" value="0"/>
                <item ACCUMULATED="0" dataType="int" label="LUTRAM" stringID="MAP_LUTRAM" value="0"/>
                <item ACCUMULATED="0" dataType="int" label="BRAM" stringID="MAP_BRAM" value="0"/>
                <item ACCUMULATED="0" dataType="int" stringID="MAP_MULT18X18" value="0"/>
                <item ACCUMULATED="0" dataType="int" label="BUFG" stringID="MAP_BUFG" value="0"/>
                <item ACCUMULATED="0" dataType="int" label="DCM" stringID="MAP_DCM" value="0"/>
                <node label="Module Name" stringID="MAP_MODULE" value="PLBv46_I">
                  <item label="Partition" stringID="MAP_PARTITION" value=""/>
                  <item ACCUMULATED="132" dataType="int" label="Slices" stringID="MAP_SLICES" value="0"/>
                  <item ACCUMULATED="140" dataType="int" label="Slice Reg" stringID="MAP_SLICE_REG" value="0"/>
                  <item ACCUMULATED="39" dataType="int" label="LUTs" stringID="MAP_LUTS" value="0"/>
                  <item ACCUMULATED="0" dataType="int" label="LUTRAM" stringID="MAP_LUTRAM" value="0"/>
                  <item ACCUMULATED="0" dataType="int" label="BRAM" stringID="MAP_BRAM" value="0"/>
                  <item ACCUMULATED="0" dataType="int" stringID="MAP_MULT18X18" value="0"/>
                  <item ACCUMULATED="0" dataType="int" label="BUFG" stringID="MAP_BUFG" value="0"/>
                  <item ACCUMULATED="0" dataType="int" label="DCM" stringID="MAP_DCM" value="0"/>
                  <node label="Module Name" stringID="MAP_MODULE" value="I_SLAVE_ATTACHMENT">
                    <item label="Partition" stringID="MAP_PARTITION" value=""/>
                    <item ACCUMULATED="132" dataType="int" label="Slices" stringID="MAP_SLICES" value="97"/>
                    <item ACCUMULATED="140" dataType="int" label="Slice Reg" stringID="MAP_SLICE_REG" value="112"/>
                    <item ACCUMULATED="39" dataType="int" label="LUTs" stringID="MAP_LUTS" value="13"/>
                    <item ACCUMULATED="0" dataType="int" label="LUTRAM" stringID="MAP_LUTRAM" value="0"/>
                    <item ACCUMULATED="0" dataType="int" label="BRAM" stringID="MAP_BRAM" value="0"/>
                    <item ACCUMULATED="0" dataType="int" stringID="MAP_MULT18X18" value="0"/>
                    <item ACCUMULATED="0" dataType="int" label="BUFG" stringID="MAP_BUFG" value="0"/>
                    <item ACCUMULATED="0" dataType="int" label="DCM" stringID="MAP_DCM" value="0"/>
                    <node label="Module Name" stringID="MAP_MODULE" value="INCLUDE_DATA_PHASE_WDT.I_DPTO_COUNTER">
                      <item label="Partition" stringID="MAP_PARTITION" value=""/>
                      <item ACCUMULATED="7" dataType="int" label="Slices" stringID="MAP_SLICES" value="7"/>
                      <item ACCUMULATED="9" dataType="int" label="Slice Reg" stringID="MAP_SLICE_REG" value="9"/>
                      <item ACCUMULATED="11" dataType="int" label="LUTs" stringID="MAP_LUTS" value="11"/>
                      <item ACCUMULATED="0" dataType="int" label="LUTRAM" stringID="MAP_LUTRAM" value="0"/>
                      <item ACCUMULATED="0" dataType="int" label="BRAM" stringID="MAP_BRAM" value="0"/>
                      <item ACCUMULATED="0" dataType="int" stringID="MAP_MULT18X18" value="0"/>
                      <item ACCUMULATED="0" dataType="int" label="BUFG" stringID="MAP_BUFG" value="0"/>
                      <item ACCUMULATED="0" dataType="int" label="DCM" stringID="MAP_DCM" value="0"/>
                    </node>
                    <node label="Module Name" stringID="MAP_MODULE" value="I_DECODER">
                      <item label="Partition" stringID="MAP_PARTITION" value=""/>
                      <item ACCUMULATED="28" dataType="int" label="Slices" stringID="MAP_SLICES" value="18"/>
                      <item ACCUMULATED="19" dataType="int" label="Slice Reg" stringID="MAP_SLICE_REG" value="19"/>
                      <item ACCUMULATED="15" dataType="int" label="LUTs" stringID="MAP_LUTS" value="2"/>
                      <item ACCUMULATED="0" dataType="int" label="LUTRAM" stringID="MAP_LUTRAM" value="0"/>
                      <item ACCUMULATED="0" dataType="int" label="BRAM" stringID="MAP_BRAM" value="0"/>
                      <item ACCUMULATED="0" dataType="int" stringID="MAP_MULT18X18" value="0"/>
                      <item ACCUMULATED="0" dataType="int" label="BUFG" stringID="MAP_BUFG" value="0"/>
                      <item ACCUMULATED="0" dataType="int" label="DCM" stringID="MAP_DCM" value="0"/>
                      <node label="Module Name" stringID="MAP_MODULE" value="MEM_DECODE_GEN[0].GEN_PLB_SHARED.MEM_SELECT_I">
                        <item label="Partition" stringID="MAP_PARTITION" value=""/>
                        <item ACCUMULATED="4" dataType="int" label="Slices" stringID="MAP_SLICES" value="4"/>
                        <item ACCUMULATED="0" dataType="int" label="Slice Reg" stringID="MAP_SLICE_REG" value="0"/>
                        <item ACCUMULATED="7" dataType="int" label="LUTs" stringID="MAP_LUTS" value="7"/>
                        <item ACCUMULATED="0" dataType="int" label="LUTRAM" stringID="MAP_LUTRAM" value="0"/>
                        <item ACCUMULATED="0" dataType="int" label="BRAM" stringID="MAP_BRAM" value="0"/>
                        <item ACCUMULATED="0" dataType="int" stringID="MAP_MULT18X18" value="0"/>
                        <item ACCUMULATED="0" dataType="int" label="BUFG" stringID="MAP_BUFG" value="0"/>
                        <item ACCUMULATED="0" dataType="int" label="DCM" stringID="MAP_DCM" value="0"/>
                      </node>
                      <node label="Module Name" stringID="MAP_MODULE" value="MEM_DECODE_GEN[0].PER_CE_GEN[0].MULTIPLE_CES_THIS_CS_GEN.CE_I">
                        <item label="Partition" stringID="MAP_PARTITION" value=""/>
                        <item ACCUMULATED="1" dataType="int" label="Slices" stringID="MAP_SLICES" value="1"/>
                        <item ACCUMULATED="0" dataType="int" label="Slice Reg" stringID="MAP_SLICE_REG" value="0"/>
                        <item ACCUMULATED="1" dataType="int" label="LUTs" stringID="MAP_LUTS" value="1"/>
                        <item ACCUMULATED="0" dataType="int" label="LUTRAM" stringID="MAP_LUTRAM" value="0"/>
                        <item ACCUMULATED="0" dataType="int" label="BRAM" stringID="MAP_BRAM" value="0"/>
                        <item ACCUMULATED="0" dataType="int" stringID="MAP_MULT18X18" value="0"/>
                        <item ACCUMULATED="0" dataType="int" label="BUFG" stringID="MAP_BUFG" value="0"/>
                        <item ACCUMULATED="0" dataType="int" label="DCM" stringID="MAP_DCM" value="0"/>
                      </node>
                      <node label="Module Name" stringID="MAP_MODULE" value="MEM_DECODE_GEN[0].PER_CE_GEN[1].MULTIPLE_CES_THIS_CS_GEN.CE_I">
                        <item label="Partition" stringID="MAP_PARTITION" value=""/>
                        <item ACCUMULATED="1" dataType="int" label="Slices" stringID="MAP_SLICES" value="1"/>
                        <item ACCUMULATED="0" dataType="int" label="Slice Reg" stringID="MAP_SLICE_REG" value="0"/>
                        <item ACCUMULATED="1" dataType="int" label="LUTs" stringID="MAP_LUTS" value="1"/>
                        <item ACCUMULATED="0" dataType="int" label="LUTRAM" stringID="MAP_LUTRAM" value="0"/>
                        <item ACCUMULATED="0" dataType="int" label="BRAM" stringID="MAP_BRAM" value="0"/>
                        <item ACCUMULATED="0" dataType="int" stringID="MAP_MULT18X18" value="0"/>
                        <item ACCUMULATED="0" dataType="int" label="BUFG" stringID="MAP_BUFG" value="0"/>
                        <item ACCUMULATED="0" dataType="int" label="DCM" stringID="MAP_DCM" value="0"/>
                      </node>
                      <node label="Module Name" stringID="MAP_MODULE" value="MEM_DECODE_GEN[0].PER_CE_GEN[2].MULTIPLE_CES_THIS_CS_GEN.CE_I">
                        <item label="Partition" stringID="MAP_PARTITION" value=""/>
                        <item ACCUMULATED="1" dataType="int" label="Slices" stringID="MAP_SLICES" value="1"/>
                        <item ACCUMULATED="0" dataType="int" label="Slice Reg" stringID="MAP_SLICE_REG" value="0"/>
                        <item ACCUMULATED="1" dataType="int" label="LUTs" stringID="MAP_LUTS" value="1"/>
                        <item ACCUMULATED="0" dataType="int" label="LUTRAM" stringID="MAP_LUTRAM" value="0"/>
                        <item ACCUMULATED="0" dataType="int" label="BRAM" stringID="MAP_BRAM" value="0"/>
                        <item ACCUMULATED="0" dataType="int" stringID="MAP_MULT18X18" value="0"/>
                        <item ACCUMULATED="0" dataType="int" label="BUFG" stringID="MAP_BUFG" value="0"/>
                        <item ACCUMULATED="0" dataType="int" label="DCM" stringID="MAP_DCM" value="0"/>
                      </node>
                      <node label="Module Name" stringID="MAP_MODULE" value="MEM_DECODE_GEN[0].PER_CE_GEN[4].MULTIPLE_CES_THIS_CS_GEN.CE_I">
                        <item label="Partition" stringID="MAP_PARTITION" value=""/>
                        <item ACCUMULATED="1" dataType="int" label="Slices" stringID="MAP_SLICES" value="1"/>
                        <item ACCUMULATED="0" dataType="int" label="Slice Reg" stringID="MAP_SLICE_REG" value="0"/>
                        <item ACCUMULATED="1" dataType="int" label="LUTs" stringID="MAP_LUTS" value="1"/>
                        <item ACCUMULATED="0" dataType="int" label="LUTRAM" stringID="MAP_LUTRAM" value="0"/>
                        <item ACCUMULATED="0" dataType="int" label="BRAM" stringID="MAP_BRAM" value="0"/>
                        <item ACCUMULATED="0" dataType="int" stringID="MAP_MULT18X18" value="0"/>
                        <item ACCUMULATED="0" dataType="int" label="BUFG" stringID="MAP_BUFG" value="0"/>
                        <item ACCUMULATED="0" dataType="int" label="DCM" stringID="MAP_DCM" value="0"/>
                      </node>
                      <node label="Module Name" stringID="MAP_MODULE" value="MEM_DECODE_GEN[0].PER_CE_GEN[5].MULTIPLE_CES_THIS_CS_GEN.CE_I">
                        <item label="Partition" stringID="MAP_PARTITION" value=""/>
                        <item ACCUMULATED="1" dataType="int" label="Slices" stringID="MAP_SLICES" value="1"/>
                        <item ACCUMULATED="0" dataType="int" label="Slice Reg" stringID="MAP_SLICE_REG" value="0"/>
                        <item ACCUMULATED="1" dataType="int" label="LUTs" stringID="MAP_LUTS" value="1"/>
                        <item ACCUMULATED="0" dataType="int" label="LUTRAM" stringID="MAP_LUTRAM" value="0"/>
                        <item ACCUMULATED="0" dataType="int" label="BRAM" stringID="MAP_BRAM" value="0"/>
                        <item ACCUMULATED="0" dataType="int" stringID="MAP_MULT18X18" value="0"/>
                        <item ACCUMULATED="0" dataType="int" label="BUFG" stringID="MAP_BUFG" value="0"/>
                        <item ACCUMULATED="0" dataType="int" label="DCM" stringID="MAP_DCM" value="0"/>
                      </node>
                      <node label="Module Name" stringID="MAP_MODULE" value="MEM_DECODE_GEN[0].PER_CE_GEN[6].MULTIPLE_CES_THIS_CS_GEN.CE_I">
                        <item label="Partition" stringID="MAP_PARTITION" value=""/>
                        <item ACCUMULATED="1" dataType="int" label="Slices" stringID="MAP_SLICES" value="1"/>
                        <item ACCUMULATED="0" dataType="int" label="Slice Reg" stringID="MAP_SLICE_REG" value="0"/>
                        <item ACCUMULATED="1" dataType="int" label="LUTs" stringID="MAP_LUTS" value="1"/>
                        <item ACCUMULATED="0" dataType="int" label="LUTRAM" stringID="MAP_LUTRAM" value="0"/>
                        <item ACCUMULATED="0" dataType="int" label="BRAM" stringID="MAP_BRAM" value="0"/>
                        <item ACCUMULATED="0" dataType="int" stringID="MAP_MULT18X18" value="0"/>
                        <item ACCUMULATED="0" dataType="int" label="BUFG" stringID="MAP_BUFG" value="0"/>
                        <item ACCUMULATED="0" dataType="int" label="DCM" stringID="MAP_DCM" value="0"/>
                      </node>
                    </node>
                  </node>
                </node>
                <node label="Module Name" stringID="MAP_MODULE" value="TC_CORE_I">
                  <item label="Partition" stringID="MAP_PARTITION" value=""/>
                  <item ACCUMULATED="204" dataType="int" label="Slices" stringID="MAP_SLICES" value="4"/>
                  <item ACCUMULATED="161" dataType="int" label="Slice Reg" stringID="MAP_SLICE_REG" value="1"/>
                  <item ACCUMULATED="323" dataType="int" label="LUTs" stringID="MAP_LUTS" value="5"/>
                  <item ACCUMULATED="0" dataType="int" label="LUTRAM" stringID="MAP_LUTRAM" value="0"/>
                  <item ACCUMULATED="0" dataType="int" label="BRAM" stringID="MAP_BRAM" value="0"/>
                  <item ACCUMULATED="0" dataType="int" stringID="MAP_MULT18X18" value="0"/>
                  <item ACCUMULATED="0" dataType="int" label="BUFG" stringID="MAP_BUFG" value="0"/>
                  <item ACCUMULATED="0" dataType="int" label="DCM" stringID="MAP_DCM" value="0"/>
                  <node label="Module Name" stringID="MAP_MODULE" value="COUNTER_0_I">
                    <item label="Partition" stringID="MAP_PARTITION" value=""/>
                    <item ACCUMULATED="44" dataType="int" label="Slices" stringID="MAP_SLICES" value="24"/>
                    <item ACCUMULATED="65" dataType="int" label="Slice Reg" stringID="MAP_SLICE_REG" value="32"/>
                    <item ACCUMULATED="73" dataType="int" label="LUTs" stringID="MAP_LUTS" value="36"/>
                    <item ACCUMULATED="0" dataType="int" label="LUTRAM" stringID="MAP_LUTRAM" value="0"/>
                    <item ACCUMULATED="0" dataType="int" label="BRAM" stringID="MAP_BRAM" value="0"/>
                    <item ACCUMULATED="0" dataType="int" stringID="MAP_MULT18X18" value="0"/>
                    <item ACCUMULATED="0" dataType="int" label="BUFG" stringID="MAP_BUFG" value="0"/>
                    <item ACCUMULATED="0" dataType="int" label="DCM" stringID="MAP_DCM" value="0"/>
                    <node label="Module Name" stringID="MAP_MODULE" value="COUNTER_I">
                      <item label="Partition" stringID="MAP_PARTITION" value=""/>
                      <item ACCUMULATED="20" dataType="int" label="Slices" stringID="MAP_SLICES" value="20"/>
                      <item ACCUMULATED="33" dataType="int" label="Slice Reg" stringID="MAP_SLICE_REG" value="33"/>
                      <item ACCUMULATED="37" dataType="int" label="LUTs" stringID="MAP_LUTS" value="37"/>
                      <item ACCUMULATED="0" dataType="int" label="LUTRAM" stringID="MAP_LUTRAM" value="0"/>
                      <item ACCUMULATED="0" dataType="int" label="BRAM" stringID="MAP_BRAM" value="0"/>
                      <item ACCUMULATED="0" dataType="int" stringID="MAP_MULT18X18" value="0"/>
                      <item ACCUMULATED="0" dataType="int" label="BUFG" stringID="MAP_BUFG" value="0"/>
                      <item ACCUMULATED="0" dataType="int" label="DCM" stringID="MAP_DCM" value="0"/>
                    </node>
                  </node>
                  <node label="Module Name" stringID="MAP_MODULE" value="GEN_SECOND_TIMER.COUNTER_1_I">
                    <item label="Partition" stringID="MAP_PARTITION" value=""/>
                    <item ACCUMULATED="43" dataType="int" label="Slices" stringID="MAP_SLICES" value="23"/>
                    <item ACCUMULATED="65" dataType="int" label="Slice Reg" stringID="MAP_SLICE_REG" value="32"/>
                    <item ACCUMULATED="74" dataType="int" label="LUTs" stringID="MAP_LUTS" value="36"/>
                    <item ACCUMULATED="0" dataType="int" label="LUTRAM" stringID="MAP_LUTRAM" value="0"/>
                    <item ACCUMULATED="0" dataType="int" label="BRAM" stringID="MAP_BRAM" value="0"/>
                    <item ACCUMULATED="0" dataType="int" stringID="MAP_MULT18X18" value="0"/>
                    <item ACCUMULATED="0" dataType="int" label="BUFG" stringID="MAP_BUFG" value="0"/>
                    <item ACCUMULATED="0" dataType="int" label="DCM" stringID="MAP_DCM" value="0"/>
                    <node label="Module Name" stringID="MAP_MODULE" value="COUNTER_I">
                      <item label="Partition" stringID="MAP_PARTITION" value=""/>
                      <item ACCUMULATED="20" dataType="int" label="Slices" stringID="MAP_SLICES" value="20"/>
                      <item ACCUMULATED="33" dataType="int" label="Slice Reg" stringID="MAP_SLICE_REG" value="33"/>
                      <item ACCUMULATED="38" dataType="int" label="LUTs" stringID="MAP_LUTS" value="38"/>
                      <item ACCUMULATED="0" dataType="int" label="LUTRAM" stringID="MAP_LUTRAM" value="0"/>
                      <item ACCUMULATED="0" dataType="int" label="BRAM" stringID="MAP_BRAM" value="0"/>
                      <item ACCUMULATED="0" dataType="int" stringID="MAP_MULT18X18" value="0"/>
                      <item ACCUMULATED="0" dataType="int" label="BUFG" stringID="MAP_BUFG" value="0"/>
                      <item ACCUMULATED="0" dataType="int" label="DCM" stringID="MAP_DCM" value="0"/>
                    </node>
                  </node>
                  <node label="Module Name" stringID="MAP_MODULE" value="READ_MUX_I">
                    <item label="Partition" stringID="MAP_PARTITION" value=""/>
                    <item ACCUMULATED="43" dataType="int" label="Slices" stringID="MAP_SLICES" value="43"/>
                    <item ACCUMULATED="0" dataType="int" label="Slice Reg" stringID="MAP_SLICE_REG" value="0"/>
                    <item ACCUMULATED="75" dataType="int" label="LUTs" stringID="MAP_LUTS" value="75"/>
                    <item ACCUMULATED="0" dataType="int" label="LUTRAM" stringID="MAP_LUTRAM" value="0"/>
                    <item ACCUMULATED="0" dataType="int" label="BRAM" stringID="MAP_BRAM" value="0"/>
                    <item ACCUMULATED="0" dataType="int" stringID="MAP_MULT18X18" value="0"/>
                    <item ACCUMULATED="0" dataType="int" label="BUFG" stringID="MAP_BUFG" value="0"/>
                    <item ACCUMULATED="0" dataType="int" label="DCM" stringID="MAP_DCM" value="0"/>
                  </node>
                  <node label="Module Name" stringID="MAP_MODULE" value="TIMER_CONTROL_I">
                    <item label="Partition" stringID="MAP_PARTITION" value=""/>
                    <item ACCUMULATED="70" dataType="int" label="Slices" stringID="MAP_SLICES" value="70"/>
                    <item ACCUMULATED="30" dataType="int" label="Slice Reg" stringID="MAP_SLICE_REG" value="30"/>
                    <item ACCUMULATED="96" dataType="int" label="LUTs" stringID="MAP_LUTS" value="96"/>
                    <item ACCUMULATED="0" dataType="int" label="LUTRAM" stringID="MAP_LUTRAM" value="0"/>
                    <item ACCUMULATED="0" dataType="int" label="BRAM" stringID="MAP_BRAM" value="0"/>
                    <item ACCUMULATED="0" dataType="int" stringID="MAP_MULT18X18" value="0"/>
                    <item ACCUMULATED="0" dataType="int" label="BUFG" stringID="MAP_BUFG" value="0"/>
                    <item ACCUMULATED="0" dataType="int" label="DCM" stringID="MAP_DCM" value="0"/>
                  </node>
                </node>
              </node>
            </node>
          </node>
        </tree>
      </section>
    </task>
  </application>

</document>
